                                  MODFLOW-2005     
      U.S. GEOLOGICAL SURVEY MODULAR FINITE-DIFFERENCE GROUND-WATER FLOW MODEL
                            VERSION 1.4.00 11/2/2007

 LIST FILE: l1b2k.lst
                         UNIT    1

 OPENING l1b2k.ba6
 FILE TYPE:BAS6   UNIT    7   STATUS:OLD    
 FORMAT:FORMATTED              ACCESS:SEQUENTIAL          

 OPENING l1b2k.bc6
 FILE TYPE:BCF6   UNIT   10   STATUS:OLD    
 FORMAT:FORMATTED              ACCESS:SEQUENTIAL          

 OPENING l1b2k.evt
 FILE TYPE:EVT   UNIT   11   STATUS:OLD    
 FORMAT:FORMATTED              ACCESS:SEQUENTIAL          

 OPENING l1b2k.rch
 FILE TYPE:RCH   UNIT   12   STATUS:OLD    
 FORMAT:FORMATTED              ACCESS:SEQUENTIAL          

 OPENING l1b2k.sip
 FILE TYPE:SIP   UNIT   13   STATUS:OLD    
 FORMAT:FORMATTED              ACCESS:SEQUENTIAL          

 OPENING l1b2k.oc
 FILE TYPE:OC   UNIT   17   STATUS:OLD    
 FORMAT:FORMATTED              ACCESS:SEQUENTIAL          

 OPENING l1b2k.lak
 FILE TYPE:LAK   UNIT   16   STATUS:OLD    
 FORMAT:FORMATTED              ACCESS:SEQUENTIAL          

 OPENING l1b2k.dis
 FILE TYPE:DIS   UNIT   14   STATUS:OLD    
 FORMAT:FORMATTED              ACCESS:SEQUENTIAL          

 OPENING l1b2k.fhb
 FILE TYPE:FHB   UNIT   21   STATUS:OLD    
 FORMAT:FORMATTED              ACCESS:SEQUENTIAL          

 BAS -- BASIC PACKAGE, VERSION 7, 5/2/2005 INPUT READ FROM UNIT    7

 DISCRETIZATION INPUT DATA READ FROM UNIT   14
    5 LAYERS        17 ROWS        17 COLUMNS
    1 STRESS PERIOD(S) IN SIMULATION
 MODEL TIME UNIT IS DAYS
 MODEL LENGTH UNIT IS UNDEFINED
  Confining bed flag for each layer:
   0   0   0   0   0



                               DELR
 READING ON UNIT   14 WITH FORMAT: (10F13.0)           
   250.00       1000.0       1000.0       1000.0       1000.0       1000.0       500.00       500.00       500.00       500.00    
   500.00       1000.0       1000.0       1000.0       1000.0       1000.0       250.00    



                               DELC
 READING ON UNIT   14 WITH FORMAT: (10F13.0)           
   250.00       1000.0       1000.0       1000.0       1000.0       1000.0       500.00       500.00       500.00       500.00    
   500.00       1000.0       1000.0       1000.0       1000.0       1000.0       250.00    

 TOP ELEVATION OF LAYER 1 =   500.000    

   MODEL LAYER BOTTOM EL. =   107.000     FOR LAYER   1

   MODEL LAYER BOTTOM EL. =   97.0000     FOR LAYER   2

   MODEL LAYER BOTTOM EL. =   87.0000     FOR LAYER   3

   MODEL LAYER BOTTOM EL. =   77.0000     FOR LAYER   4

   MODEL LAYER BOTTOM EL. =   67.0000     FOR LAYER   5


 STRESS PERIOD     LENGTH       TIME STEPS     MULTIPLIER FOR DELT    SS FLAG
 ----------------------------------------------------------------------------
        1         1.000000          1                    1.000         SS

 STEADY-STATE SIMULATION



 
 #Hypothetical simulator of lake and surficial aquifer interaction. ------------ 
 #Shows convergence to equilibrium in transient mode.                            



                     BOUNDARY ARRAY FOR LAYER   1
 READING ON UNIT    7 WITH FORMAT: (20I4)              

        1   2   3   4   5   6   7   8   9  10  11  12  13  14  15  16  17
 ........................................................................
   1   -1  -1  -1  -1  -1  -1  -1  -1  -1  -1  -1  -1  -1  -1  -1  -1  -1
   2   -1   1   1   1   1   1   1   1   1   1   1   1   1   1   1   1  -1
   3   -1   1   1   1   1   1   1   1   1   1   1   1   1   1   1   1  -1
   4   -1   1   1   1   1   1   1   1   1   1   1   1   1   1   1   1  -1
   5   -1   1   1   1   1   1   1   1   1   1   1   1   1   1   1   1  -1
   6   -1   1   1   1   1   1   1   1   1   1   1   1   1   1   1   1  -1
   7   -1   1   1   1   1   1   0   0   0   0   0   1   1   1   1   1  -1
   8   -1   1   1   1   1   1   0   0   0   0   0   1   1   1   1   1  -1
   9   -1   1   1   1   1   1   0   0   0   0   0   1   1   1   1   1  -1
  10   -1   1   1   1   1   1   0   0   0   0   0   1   1   1   1   1  -1
  11   -1   1   1   1   1   1   0   0   0   0   0   1   1   1   1   1  -1
  12   -1   1   1   1   1   1   1   1   1   1   1   1   1   1   1   1  -1
  13   -1   1   1   1   1   1   1   1   1   1   1   1   1   1   1   1  -1
  14   -1   1   1   1   1   1   1   1   1   1   1   1   1   1   1   1  -1
  15   -1   1   1   1   1   1   1   1   1   1   1   1   1   1   1   1  -1
  16   -1   1   1   1   1   1   1   1   1   1   1   1   1   1   1   1  -1
  17   -1  -1  -1  -1  -1  -1  -1  -1  -1  -1  -1  -1  -1  -1  -1  -1  -1



                     BOUNDARY ARRAY FOR LAYER   2
 READING ON UNIT    7 WITH FORMAT: (20I4)              

        1   2   3   4   5   6   7   8   9  10  11  12  13  14  15  16  17
 ........................................................................
   1   -1  -1  -1  -1  -1  -1  -1  -1  -1  -1  -1  -1  -1  -1  -1  -1  -1
   2   -1   1   1   1   1   1   1   1   1   1   1   1   1   1   1   1  -1
   3   -1   1   1   1   1   1   1   1   1   1   1   1   1   1   1   1  -1
   4   -1   1   1   1   1   1   1   1   1   1   1   1   1   1   1   1  -1
   5   -1   1   1   1   1   1   1   1   1   1   1   1   1   1   1   1  -1
   6   -1   1   1   1   1   1   1   1   1   1   1   1   1   1   1   1  -1
   7   -1   1   1   1   1   1   1   1   1   1   1   1   1   1   1   1  -1
   8   -1   1   1   1   1   1   1   0   0   0   1   1   1   1   1   1  -1
   9   -1   1   1   1   1   1   1   0   0   0   1   1   1   1   1   1  -1
  10   -1   1   1   1   1   1   1   0   0   0   1   1   1   1   1   1  -1
  11   -1   1   1   1   1   1   1   1   1   1   1   1   1   1   1   1  -1
  12   -1   1   1   1   1   1   1   1   1   1   1   1   1   1   1   1  -1
  13   -1   1   1   1   1   1   1   1   1   1   1   1   1   1   1   1  -1
  14   -1   1   1   1   1   1   1   1   1   1   1   1   1   1   1   1  -1
  15   -1   1   1   1   1   1   1   1   1   1   1   1   1   1   1   1  -1
  16   -1   1   1   1   1   1   1   1   1   1   1   1   1   1   1   1  -1
  17   -1  -1  -1  -1  -1  -1  -1  -1  -1  -1  -1  -1  -1  -1  -1  -1  -1



                     BOUNDARY ARRAY FOR LAYER   3
 READING ON UNIT    7 WITH FORMAT: (20I4)              

        1   2   3   4   5   6   7   8   9  10  11  12  13  14  15  16  17
 ........................................................................
   1   -1  -1  -1  -1  -1  -1  -1  -1  -1  -1  -1  -1  -1  -1  -1  -1  -1
   2   -1   1   1   1   1   1   1   1   1   1   1   1   1   1   1   1  -1
   3   -1   1   1   1   1   1   1   1   1   1   1   1   1   1   1   1  -1
   4   -1   1   1   1   1   1   1   1   1   1   1   1   1   1   1   1  -1
   5   -1   1   1   1   1   1   1   1   1   1   1   1   1   1   1   1  -1
   6   -1   1   1   1   1   1   1   1   1   1   1   1   1   1   1   1  -1
   7   -1   1   1   1   1   1   1   1   1   1   1   1   1   1   1   1  -1
   8   -1   1   1   1   1   1   1   1   1   1   1   1   1   1   1   1  -1
   9   -1   1   1   1   1   1   1   1   1   1   1   1   1   1   1   1  -1
  10   -1   1   1   1   1   1   1   1   1   1   1   1   1   1   1   1  -1
  11   -1   1   1   1   1   1   1   1   1   1   1   1   1   1   1   1  -1
  12   -1   1   1   1   1   1   1   1   1   1   1   1   1   1   1   1  -1
  13   -1   1   1   1   1   1   1   1   1   1   1   1   1   1   1   1  -1
  14   -1   1   1   1   1   1   1   1   1   1   1   1   1   1   1   1  -1
  15   -1   1   1   1   1   1   1   1   1   1   1   1   1   1   1   1  -1
  16   -1   1   1   1   1   1   1   1   1   1   1   1   1   1   1   1  -1
  17   -1  -1  -1  -1  -1  -1  -1  -1  -1  -1  -1  -1  -1  -1  -1  -1  -1



                     BOUNDARY ARRAY FOR LAYER   4
 READING ON UNIT    7 WITH FORMAT: (20I4)              

        1   2   3   4   5   6   7   8   9  10  11  12  13  14  15  16  17
 ........................................................................
   1   -1  -1  -1  -1  -1  -1  -1  -1  -1  -1  -1  -1  -1  -1  -1  -1  -1
   2   -1   1   1   1   1   1   1   1   1   1   1   1   1   1   1   1  -1
   3   -1   1   1   1   1   1   1   1   1   1   1   1   1   1   1   1  -1
   4   -1   1   1   1   1   1   1   1   1   1   1   1   1   1   1   1  -1
   5   -1   1   1   1   1   1   1   1   1   1   1   1   1   1   1   1  -1
   6   -1   1   1   1   1   1   1   1   1   1   1   1   1   1   1   1  -1
   7   -1   1   1   1   1   1   1   1   1   1   1   1   1   1   1   1  -1
   8   -1   1   1   1   1   1   1   1   1   1   1   1   1   1   1   1  -1
   9   -1   1   1   1   1   1   1   1   1   1   1   1   1   1   1   1  -1
  10   -1   1   1   1   1   1   1   1   1   1   1   1   1   1   1   1  -1
  11   -1   1   1   1   1   1   1   1   1   1   1   1   1   1   1   1  -1
  12   -1   1   1   1   1   1   1   1   1   1   1   1   1   1   1   1  -1
  13   -1   1   1   1   1   1   1   1   1   1   1   1   1   1   1   1  -1
  14   -1   1   1   1   1   1   1   1   1   1   1   1   1   1   1   1  -1
  15   -1   1   1   1   1   1   1   1   1   1   1   1   1   1   1   1  -1
  16   -1   1   1   1   1   1   1   1   1   1   1   1   1   1   1   1  -1
  17   -1  -1  -1  -1  -1  -1  -1  -1  -1  -1  -1  -1  -1  -1  -1  -1  -1



                     BOUNDARY ARRAY FOR LAYER   5
 READING ON UNIT    7 WITH FORMAT: (20I4)              

        1   2   3   4   5   6   7   8   9  10  11  12  13  14  15  16  17
 ........................................................................
   1   -1  -1  -1  -1  -1  -1  -1  -1  -1  -1  -1  -1  -1  -1  -1  -1  -1
   2   -1   1   1   1   1   1   1   1   1   1   1   1   1   1   1   1  -1
   3   -1   1   1   1   1   1   1   1   1   1   1   1   1   1   1   1  -1
   4   -1   1   1   1   1   1   1   1   1   1   1   1   1   1   1   1  -1
   5   -1   1   1   1   1   1   1   1   1   1   1   1   1   1   1   1  -1
   6   -1   1   1   1   1   1   1   1   1   1   1   1   1   1   1   1  -1
   7   -1   1   1   1   1   1   1   1   1   1   1   1   1   1   1   1  -1
   8   -1   1   1   1   1   1   1   1   1   1   1   1   1   1   1   1  -1
   9   -1   1   1   1   1   1   1   1   1   1   1   1   1   1   1   1  -1
  10   -1   1   1   1   1   1   1   1   1   1   1   1   1   1   1   1  -1
  11   -1   1   1   1   1   1   1   1   1   1   1   1   1   1   1   1  -1
  12   -1   1   1   1   1   1   1   1   1   1   1   1   1   1   1   1  -1
  13   -1   1   1   1   1   1   1   1   1   1   1   1   1   1   1   1  -1
  14   -1   1   1   1   1   1   1   1   1   1   1   1   1   1   1   1  -1
  15   -1   1   1   1   1   1   1   1   1   1   1   1   1   1   1   1  -1
  16   -1   1   1   1   1   1   1   1   1   1   1   1   1   1   1   1  -1
  17   -1  -1  -1  -1  -1  -1  -1  -1  -1  -1  -1  -1  -1  -1  -1  -1  -1

 AQUIFER HEAD WILL BE SET TO -999.00     AT ALL NO-FLOW NODES (IBOUND=0).

             INITIAL HEAD =   115.000     FOR LAYER   1

             INITIAL HEAD =   115.000     FOR LAYER   2

             INITIAL HEAD =   115.000     FOR LAYER   3

             INITIAL HEAD =   115.000     FOR LAYER   4

             INITIAL HEAD =   115.000     FOR LAYER   5

 OUTPUT CONTROL IS SPECIFIED EVERY TIME STEP
 HEAD PRINT FORMAT CODE IS -14    DRAWDOWN PRINT FORMAT CODE IS   9
 HEADS WILL BE SAVED ON UNIT   18    DRAWDOWNS WILL BE SAVED ON UNIT   19

 BCF -- BLOCK-CENTERED FLOW PACKAGE, VERSION 7, 5/2/2005
         INPUT READ FROM UNIT 10
 STEADY-STATE SIMULATION
 HEAD AT CELLS THAT CONVERT TO DRY=   0.0000    
 WETTING CAPABILITY IS ACTIVE
 WETTING FACTOR=   1.00000     WETTING ITERATION INTERVAL=   1
 FLAG THAT SPECIFIES THE EQUATION TO USE FOR HEAD AT WETTED CELLS=   0
      LAYER  LAYER-TYPE CODE     INTERBLOCK T
      --------------------------------------------
         1            1          0 -- HARMONIC    
         2            3          0 -- HARMONIC    
         3            3          0 -- HARMONIC    
         4            3          0 -- HARMONIC    
         5            3          0 -- HARMONIC    

 COLUMN TO ROW ANISOTROPY =   1.00000    

    HYD. COND. ALONG ROWS =   30.0000     FOR LAYER   1

 VERT HYD COND /THICKNESS =   3.00000     FOR LAYER   1



                   WETDRY PARAMETER FOR LAYER   1
 READING ON UNIT   10 WITH FORMAT: (10F13.0)           

         1     2     3     4     5     6     7     8     9    10    11    12    13    14    15    16    17
 .........................................................................................................
   1    0.0   0.0   0.0   0.0   0.0   0.0   0.0   0.0   0.0   0.0   0.0   0.0   0.0   0.0   0.0   0.0   0.0
   2    0.0  -0.2  -0.2  -0.2  -0.2  -0.2  -0.2  -0.2  -0.2  -0.2  -0.2  -0.2  -0.2  -0.2  -0.2  -0.2   0.0
   3    0.0  -0.2  -0.2  -0.2  -0.2  -0.2  -0.2  -0.2  -0.2  -0.2  -0.2  -0.2  -0.2  -0.2  -0.2  -0.2   0.0
   4    0.0  -0.2  -0.2  -0.2  -0.2  -0.2  -0.2  -0.2  -0.2  -0.2  -0.2  -0.2  -0.2  -0.2  -0.2  -0.2   0.0
   5    0.0  -0.2  -0.2  -0.2  -0.2  -0.2  -0.2  -0.2  -0.2  -0.2  -0.2  -0.2  -0.2  -0.2  -0.2  -0.2   0.0
   6    0.0  -0.2  -0.2  -0.2  -0.2  -0.2  -0.2  -0.2  -0.2  -0.2  -0.2  -0.2  -0.2  -0.2  -0.2  -0.2   0.0
   7    0.0  -0.2  -0.2  -0.2  -0.2  -0.2   0.0   0.0   0.0   0.0   0.0  -0.2  -0.2  -0.2  -0.2  -0.2   0.0
   8    0.0  -0.2  -0.2  -0.2  -0.2  -0.2   0.0   0.0   0.0   0.0   0.0  -0.2  -0.2  -0.2  -0.2  -0.2   0.0
   9    0.0  -0.2  -0.2  -0.2  -0.2  -0.2   0.0   0.0   0.0   0.0   0.0  -0.2  -0.2  -0.2  -0.2  -0.2   0.0
  10    0.0  -0.2  -0.2  -0.2  -0.2  -0.2   0.0   0.0   0.0   0.0   0.0  -0.2  -0.2  -0.2  -0.2  -0.2   0.0
  11    0.0  -0.2  -0.2  -0.2  -0.2  -0.2   0.0   0.0   0.0   0.0   0.0  -0.2  -0.2  -0.2  -0.2  -0.2   0.0
  12    0.0  -0.2  -0.2  -0.2  -0.2  -0.2  -0.2  -0.2  -0.2  -0.2  -0.2  -0.2  -0.2  -0.2  -0.2  -0.2   0.0
  13    0.0  -0.2  -0.2  -0.2  -0.2  -0.2  -0.2  -0.2  -0.2  -0.2  -0.2  -0.2  -0.2  -0.2  -0.2  -0.2   0.0
  14    0.0  -0.2  -0.2  -0.2  -0.2  -0.2  -0.2  -0.2  -0.2  -0.2  -0.2  -0.2  -0.2  -0.2  -0.2  -0.2   0.0
  15    0.0  -0.2  -0.2  -0.2  -0.2  -0.2  -0.2  -0.2  -0.2  -0.2  -0.2  -0.2  -0.2  -0.2  -0.2  -0.2   0.0
  16    0.0  -0.2  -0.2  -0.2  -0.2  -0.2  -0.2  -0.2  -0.2  -0.2  -0.2  -0.2  -0.2  -0.2  -0.2  -0.2   0.0
  17    0.0   0.0   0.0   0.0   0.0   0.0   0.0   0.0   0.0   0.0   0.0   0.0   0.0   0.0   0.0   0.0   0.0

    HYD. COND. ALONG ROWS =   30.0000     FOR LAYER   2

 VERT HYD COND /THICKNESS =   3.00000     FOR LAYER   2



                   WETDRY PARAMETER FOR LAYER   2
 READING ON UNIT   10 WITH FORMAT: (10F13.0)           

         1     2     3     4     5     6     7     8     9    10    11    12    13    14    15    16    17
 .........................................................................................................
   1    0.0   0.0   0.0   0.0   0.0   0.0   0.0   0.0   0.0   0.0   0.0   0.0   0.0   0.0   0.0   0.0   0.0
   2    0.0  -0.2  -0.2  -0.2  -0.2  -0.2  -0.2  -0.2  -0.2  -0.2  -0.2  -0.2  -0.2  -0.2  -0.2  -0.2   0.0
   3    0.0  -0.2  -0.2  -0.2  -0.2  -0.2  -0.2  -0.2  -0.2  -0.2  -0.2  -0.2  -0.2  -0.2  -0.2  -0.2   0.0
   4    0.0  -0.2  -0.2  -0.2  -0.2  -0.2  -0.2  -0.2  -0.2  -0.2  -0.2  -0.2  -0.2  -0.2  -0.2  -0.2   0.0
   5    0.0  -0.2  -0.2  -0.2  -0.2  -0.2  -0.2  -0.2  -0.2  -0.2  -0.2  -0.2  -0.2  -0.2  -0.2  -0.2   0.0
   6    0.0  -0.2  -0.2  -0.2  -0.2  -0.2  -0.2  -0.2  -0.2  -0.2  -0.2  -0.2  -0.2  -0.2  -0.2  -0.2   0.0
   7    0.0  -0.2  -0.2  -0.2  -0.2  -0.2  -0.2  -0.2  -0.2  -0.2  -0.2  -0.2  -0.2  -0.2  -0.2  -0.2   0.0
   8    0.0  -0.2  -0.2  -0.2  -0.2  -0.2  -0.2   0.0   0.0   0.0  -0.2  -0.2  -0.2  -0.2  -0.2  -0.2   0.0
   9    0.0  -0.2  -0.2  -0.2  -0.2  -0.2  -0.2   0.0   0.0   0.0  -0.2  -0.2  -0.2  -0.2  -0.2  -0.2   0.0
  10    0.0  -0.2  -0.2  -0.2  -0.2  -0.2  -0.2   0.0   0.0   0.0  -0.2  -0.2  -0.2  -0.2  -0.2  -0.2   0.0
  11    0.0  -0.2  -0.2  -0.2  -0.2  -0.2  -0.2  -0.2  -0.2  -0.2  -0.2  -0.2  -0.2  -0.2  -0.2  -0.2   0.0
  12    0.0  -0.2  -0.2  -0.2  -0.2  -0.2  -0.2  -0.2  -0.2  -0.2  -0.2  -0.2  -0.2  -0.2  -0.2  -0.2   0.0
  13    0.0  -0.2  -0.2  -0.2  -0.2  -0.2  -0.2  -0.2  -0.2  -0.2  -0.2  -0.2  -0.2  -0.2  -0.2  -0.2   0.0
  14    0.0  -0.2  -0.2  -0.2  -0.2  -0.2  -0.2  -0.2  -0.2  -0.2  -0.2  -0.2  -0.2  -0.2  -0.2  -0.2   0.0
  15    0.0  -0.2  -0.2  -0.2  -0.2  -0.2  -0.2  -0.2  -0.2  -0.2  -0.2  -0.2  -0.2  -0.2  -0.2  -0.2   0.0
  16    0.0  -0.2  -0.2  -0.2  -0.2  -0.2  -0.2  -0.2  -0.2  -0.2  -0.2  -0.2  -0.2  -0.2  -0.2  -0.2   0.0
  17    0.0   0.0   0.0   0.0   0.0   0.0   0.0   0.0   0.0   0.0   0.0   0.0   0.0   0.0   0.0   0.0   0.0

    HYD. COND. ALONG ROWS =   30.0000     FOR LAYER   3

 VERT HYD COND /THICKNESS =   3.00000     FOR LAYER   3



                   WETDRY PARAMETER FOR LAYER   3
 READING ON UNIT   10 WITH FORMAT: (10F13.0)           

         1     2     3     4     5     6     7     8     9    10    11    12    13    14    15    16    17
 .........................................................................................................
   1    0.0   0.0   0.0   0.0   0.0   0.0   0.0   0.0   0.0   0.0   0.0   0.0   0.0   0.0   0.0   0.0   0.0
   2    0.0  -0.2  -0.2  -0.2  -0.2  -0.2  -0.2  -0.2  -0.2  -0.2  -0.2  -0.2  -0.2  -0.2  -0.2  -0.2   0.0
   3    0.0  -0.2  -0.2  -0.2  -0.2  -0.2  -0.2  -0.2  -0.2  -0.2  -0.2  -0.2  -0.2  -0.2  -0.2  -0.2   0.0
   4    0.0  -0.2  -0.2  -0.2  -0.2  -0.2  -0.2  -0.2  -0.2  -0.2  -0.2  -0.2  -0.2  -0.2  -0.2  -0.2   0.0
   5    0.0  -0.2  -0.2  -0.2  -0.2  -0.2  -0.2  -0.2  -0.2  -0.2  -0.2  -0.2  -0.2  -0.2  -0.2  -0.2   0.0
   6    0.0  -0.2  -0.2  -0.2  -0.2  -0.2  -0.2  -0.2  -0.2  -0.2  -0.2  -0.2  -0.2  -0.2  -0.2  -0.2   0.0
   7    0.0  -0.2  -0.2  -0.2  -0.2  -0.2  -0.2  -0.2  -0.2  -0.2  -0.2  -0.2  -0.2  -0.2  -0.2  -0.2   0.0
   8    0.0  -0.2  -0.2  -0.2  -0.2  -0.2  -0.2  -0.2  -0.2  -0.2  -0.2  -0.2  -0.2  -0.2  -0.2  -0.2   0.0
   9    0.0  -0.2  -0.2  -0.2  -0.2  -0.2  -0.2  -0.2  -0.2  -0.2  -0.2  -0.2  -0.2  -0.2  -0.2  -0.2   0.0
  10    0.0  -0.2  -0.2  -0.2  -0.2  -0.2  -0.2  -0.2  -0.2  -0.2  -0.2  -0.2  -0.2  -0.2  -0.2  -0.2   0.0
  11    0.0  -0.2  -0.2  -0.2  -0.2  -0.2  -0.2  -0.2  -0.2  -0.2  -0.2  -0.2  -0.2  -0.2  -0.2  -0.2   0.0
  12    0.0  -0.2  -0.2  -0.2  -0.2  -0.2  -0.2  -0.2  -0.2  -0.2  -0.2  -0.2  -0.2  -0.2  -0.2  -0.2   0.0
  13    0.0  -0.2  -0.2  -0.2  -0.2  -0.2  -0.2  -0.2  -0.2  -0.2  -0.2  -0.2  -0.2  -0.2  -0.2  -0.2   0.0
  14    0.0  -0.2  -0.2  -0.2  -0.2  -0.2  -0.2  -0.2  -0.2  -0.2  -0.2  -0.2  -0.2  -0.2  -0.2  -0.2   0.0
  15    0.0  -0.2  -0.2  -0.2  -0.2  -0.2  -0.2  -0.2  -0.2  -0.2  -0.2  -0.2  -0.2  -0.2  -0.2  -0.2   0.0
  16    0.0  -0.2  -0.2  -0.2  -0.2  -0.2  -0.2  -0.2  -0.2  -0.2  -0.2  -0.2  -0.2  -0.2  -0.2  -0.2   0.0
  17    0.0   0.0   0.0   0.0   0.0   0.0   0.0   0.0   0.0   0.0   0.0   0.0   0.0   0.0   0.0   0.0   0.0

    HYD. COND. ALONG ROWS =   30.0000     FOR LAYER   4

 VERT HYD COND /THICKNESS =   3.00000     FOR LAYER   4



                   WETDRY PARAMETER FOR LAYER   4
 READING ON UNIT   10 WITH FORMAT: (10F13.0)           

         1     2     3     4     5     6     7     8     9    10    11    12    13    14    15    16    17
 .........................................................................................................
   1    0.0   0.0   0.0   0.0   0.0   0.0   0.0   0.0   0.0   0.0   0.0   0.0   0.0   0.0   0.0   0.0   0.0
   2    0.0  -0.2  -0.2  -0.2  -0.2  -0.2  -0.2  -0.2  -0.2  -0.2  -0.2  -0.2  -0.2  -0.2  -0.2  -0.2   0.0
   3    0.0  -0.2  -0.2  -0.2  -0.2  -0.2  -0.2  -0.2  -0.2  -0.2  -0.2  -0.2  -0.2  -0.2  -0.2  -0.2   0.0
   4    0.0  -0.2  -0.2  -0.2  -0.2  -0.2  -0.2  -0.2  -0.2  -0.2  -0.2  -0.2  -0.2  -0.2  -0.2  -0.2   0.0
   5    0.0  -0.2  -0.2  -0.2  -0.2  -0.2  -0.2  -0.2  -0.2  -0.2  -0.2  -0.2  -0.2  -0.2  -0.2  -0.2   0.0
   6    0.0  -0.2  -0.2  -0.2  -0.2  -0.2  -0.2  -0.2  -0.2  -0.2  -0.2  -0.2  -0.2  -0.2  -0.2  -0.2   0.0
   7    0.0  -0.2  -0.2  -0.2  -0.2  -0.2  -0.2  -0.2  -0.2  -0.2  -0.2  -0.2  -0.2  -0.2  -0.2  -0.2   0.0
   8    0.0  -0.2  -0.2  -0.2  -0.2  -0.2  -0.2  -0.2  -0.2  -0.2  -0.2  -0.2  -0.2  -0.2  -0.2  -0.2   0.0
   9    0.0  -0.2  -0.2  -0.2  -0.2  -0.2  -0.2  -0.2  -0.2  -0.2  -0.2  -0.2  -0.2  -0.2  -0.2  -0.2   0.0
  10    0.0  -0.2  -0.2  -0.2  -0.2  -0.2  -0.2  -0.2  -0.2  -0.2  -0.2  -0.2  -0.2  -0.2  -0.2  -0.2   0.0
  11    0.0  -0.2  -0.2  -0.2  -0.2  -0.2  -0.2  -0.2  -0.2  -0.2  -0.2  -0.2  -0.2  -0.2  -0.2  -0.2   0.0
  12    0.0  -0.2  -0.2  -0.2  -0.2  -0.2  -0.2  -0.2  -0.2  -0.2  -0.2  -0.2  -0.2  -0.2  -0.2  -0.2   0.0
  13    0.0  -0.2  -0.2  -0.2  -0.2  -0.2  -0.2  -0.2  -0.2  -0.2  -0.2  -0.2  -0.2  -0.2  -0.2  -0.2   0.0
  14    0.0  -0.2  -0.2  -0.2  -0.2  -0.2  -0.2  -0.2  -0.2  -0.2  -0.2  -0.2  -0.2  -0.2  -0.2  -0.2   0.0
  15    0.0  -0.2  -0.2  -0.2  -0.2  -0.2  -0.2  -0.2  -0.2  -0.2  -0.2  -0.2  -0.2  -0.2  -0.2  -0.2   0.0
  16    0.0  -0.2  -0.2  -0.2  -0.2  -0.2  -0.2  -0.2  -0.2  -0.2  -0.2  -0.2  -0.2  -0.2  -0.2  -0.2   0.0
  17    0.0   0.0   0.0   0.0   0.0   0.0   0.0   0.0   0.0   0.0   0.0   0.0   0.0   0.0   0.0   0.0   0.0

    HYD. COND. ALONG ROWS =   30.0000     FOR LAYER   5



                   WETDRY PARAMETER FOR LAYER   5
 READING ON UNIT   10 WITH FORMAT: (10F13.0)           

         1     2     3     4     5     6     7     8     9    10    11    12    13    14    15    16    17
 .........................................................................................................
   1    0.0   0.0   0.0   0.0   0.0   0.0   0.0   0.0   0.0   0.0   0.0   0.0   0.0   0.0   0.0   0.0   0.0
   2    0.0  -0.2  -0.2  -0.2  -0.2  -0.2  -0.2  -0.2  -0.2  -0.2  -0.2  -0.2  -0.2  -0.2  -0.2  -0.2   0.0
   3    0.0  -0.2  -0.2  -0.2  -0.2  -0.2  -0.2  -0.2  -0.2  -0.2  -0.2  -0.2  -0.2  -0.2  -0.2  -0.2   0.0
   4    0.0  -0.2  -0.2  -0.2  -0.2  -0.2  -0.2  -0.2  -0.2  -0.2  -0.2  -0.2  -0.2  -0.2  -0.2  -0.2   0.0
   5    0.0  -0.2  -0.2  -0.2  -0.2  -0.2  -0.2  -0.2  -0.2  -0.2  -0.2  -0.2  -0.2  -0.2  -0.2  -0.2   0.0
   6    0.0  -0.2  -0.2  -0.2  -0.2  -0.2  -0.2  -0.2  -0.2  -0.2  -0.2  -0.2  -0.2  -0.2  -0.2  -0.2   0.0
   7    0.0  -0.2  -0.2  -0.2  -0.2  -0.2  -0.2  -0.2  -0.2  -0.2  -0.2  -0.2  -0.2  -0.2  -0.2  -0.2   0.0
   8    0.0  -0.2  -0.2  -0.2  -0.2  -0.2  -0.2  -0.2  -0.2  -0.2  -0.2  -0.2  -0.2  -0.2  -0.2  -0.2   0.0
   9    0.0  -0.2  -0.2  -0.2  -0.2  -0.2  -0.2  -0.2  -0.2  -0.2  -0.2  -0.2  -0.2  -0.2  -0.2  -0.2   0.0
  10    0.0  -0.2  -0.2  -0.2  -0.2  -0.2  -0.2  -0.2  -0.2  -0.2  -0.2  -0.2  -0.2  -0.2  -0.2  -0.2   0.0
  11    0.0  -0.2  -0.2  -0.2  -0.2  -0.2  -0.2  -0.2  -0.2  -0.2  -0.2  -0.2  -0.2  -0.2  -0.2  -0.2   0.0
  12    0.0  -0.2  -0.2  -0.2  -0.2  -0.2  -0.2  -0.2  -0.2  -0.2  -0.2  -0.2  -0.2  -0.2  -0.2  -0.2   0.0
  13    0.0  -0.2  -0.2  -0.2  -0.2  -0.2  -0.2  -0.2  -0.2  -0.2  -0.2  -0.2  -0.2  -0.2  -0.2  -0.2   0.0
  14    0.0  -0.2  -0.2  -0.2  -0.2  -0.2  -0.2  -0.2  -0.2  -0.2  -0.2  -0.2  -0.2  -0.2  -0.2  -0.2   0.0
  15    0.0  -0.2  -0.2  -0.2  -0.2  -0.2  -0.2  -0.2  -0.2  -0.2  -0.2  -0.2  -0.2  -0.2  -0.2  -0.2   0.0
  16    0.0  -0.2  -0.2  -0.2  -0.2  -0.2  -0.2  -0.2  -0.2  -0.2  -0.2  -0.2  -0.2  -0.2  -0.2  -0.2   0.0
  17    0.0   0.0   0.0   0.0   0.0   0.0   0.0   0.0   0.0   0.0   0.0   0.0   0.0   0.0   0.0   0.0   0.0

 EVT -- EVAPOTRANSPIRATION PACKAGE, VERSION 7, 5/2/2005
         INPUT READ FROM UNIT   11
 No named parameters
 OPTION 3 -- EVAPOTRANSPIRATION FROM HIGHEST ACTIVE NODE IN EACH VERTICAL COLUMN


     0 Evapotranspiration parameters

 RCH -- RECHARGE PACKAGE, VERSION 7, 5/2/2005 INPUT READ FROM UNIT   12
 No named parameters
 OPTION 3 -- RECHARGE TO HIGHEST ACTIVE NODE IN EACH VERTICAL COLUMN


     0 Recharge parameters

 FHB1 -- SPECIFIED FLOW PACKAGE, VERSION 1,12/3/96 INPUT READ FROM 21
  SPECIFIED FLOW AND HEAD VALUES WILL REMAIN CONSTANT FOR ENTIRE SIMULATION.
 FLOW WILL BE SPECIFIED AT A TOTAL OF    0 CELLS.
 HEAD WILL BE SPECIFIED AT A TOTAL OF  320 CELLS.
 FLOW, HEAD, AND AUX VARIABLES AT TIME=0 WILL BE 
 USED IN STEADY-STATE SIMULATIONS.
  0 AUXILIARY VARIABLES FOR SPECIFIED-FLOW CELLS WILL
  BE DEFINED BY FHB FOR USE BY OTHER PACKAGES.
  0 AUXILIARY VARIABLES FOR SPECIFIED-HEAD CELLS WILL
  BE DEFINED BY FHB FOR USE BY OTHER PACKAGES.
 TIMES FOR SPECIFIED-FLOW AND HEAD VALUES WILL BE READ ON UNIT  21 AND
 MULTIPLIED BY   1.000    .
     1 TIMES FOR SPECIFYING FLOWS AND HEADS:
                       1
                 ------------
                    0.000    

 CELL INDICIES AND SPECIFIED-HEAD VALUES WILL BE READ ON UNIT  21. HEAD VALUES
 WILL BE MULTIPLIED BY   1.000    .
 LAYER  ROW  COL IAUX             HEAD VALUES
 -------------------------------
    1    1    1   64   160.0    
    1    2    1   64   160.0    
    1    3    1   64   160.0    
    1    4    1   64   160.0    
    1    5    1   64   160.0    
    1    6    1   64   160.0    
    1    7    1   64   160.0    
    1    8    1   64   160.0    
    1    9    1   64   160.0    
    1   10    1   64   160.0    
    1   11    1   64   160.0    
    1   12    1   64   160.0    
    1   13    1   64   160.0    
    1   14    1   64   160.0    
    1   15    1   64   160.0    
    1   16    1   64   160.0    
    1   17    1   64   160.0    
    1    1   17   64   140.0    
    1    2   17   64   140.0    
    1    3   17   64   140.0    
    1    4   17   64   140.0    
    1    5   17   64   140.0    
    1    6   17   64   140.0    
    1    7   17   64   140.0    
    1    8   17   64   140.0    
    1    9   17   64   140.0    
    1   10   17   64   140.0    
    1   11   17   64   140.0    
    1   12   17   64   140.0    
    1   13   17   64   140.0    
    1   14   17   64   140.0    
    1   15   17   64   140.0    
    1   16   17   64   140.0    
    1   17   17   64   140.0    
    2    1    1   64   160.0    
    2    2    1   64   160.0    
    2    3    1   64   160.0    
    2    4    1   64   160.0    
    2    5    1   64   160.0    
    2    6    1   64   160.0    
    2    7    1   64   160.0    
    2    8    1   64   160.0    
    2    9    1   64   160.0    
    2   10    1   64   160.0    
    2   11    1   64   160.0    
    2   12    1   64   160.0    
    2   13    1   64   160.0    
    2   14    1   64   160.0    
    2   15    1   64   160.0    
    2   16    1   64   160.0    
    2   17    1   64   160.0    
    2    1   17   64   140.0    
    2    2   17   64   140.0    
    2    3   17   64   140.0    
    2    4   17   64   140.0    
    2    5   17   64   140.0    
    2    6   17   64   140.0    
    2    7   17   64   140.0    
    2    8   17   64   140.0    
    2    9   17   64   140.0    
    2   10   17   64   140.0    
    2   11   17   64   140.0    
    2   12   17   64   140.0    
    2   13   17   64   140.0    
    2   14   17   64   140.0    
    2   15   17   64   140.0    
    2   16   17   64   140.0    
    2   17   17   64   140.0    
    3    1    1   64   160.0    
    3    2    1   64   160.0    
    3    3    1   64   160.0    
    3    4    1   64   160.0    
    3    5    1   64   160.0    
    3    6    1   64   160.0    
    3    7    1   64   160.0    
    3    8    1   64   160.0    
    3    9    1   64   160.0    
    3   10    1   64   160.0    
    3   11    1   64   160.0    
    3   12    1   64   160.0    
    3   13    1   64   160.0    
    3   14    1   64   160.0    
    3   15    1   64   160.0    
    3   16    1   64   160.0    
    3   17    1   64   160.0    
    3    1   17   64   140.0    
    3    2   17   64   140.0    
    3    3   17   64   140.0    
    3    4   17   64   140.0    
    3    5   17   64   140.0    
    3    6   17   64   140.0    
    3    7   17   64   140.0    
    3    8   17   64   140.0    
    3    9   17   64   140.0    
    3   10   17   64   140.0    
    3   11   17   64   140.0    
    3   12   17   64   140.0    
    3   13   17   64   140.0    
    3   14   17   64   140.0    
    3   15   17   64   140.0    
    3   16   17   64   140.0    
    3   17   17   64   140.0    
    4    1    1   64   160.0    
    4    2    1   64   160.0    
    4    3    1   64   160.0    
    4    4    1   64   160.0    
    4    5    1   64   160.0    
    4    6    1   64   160.0    
    4    7    1   64   160.0    
    4    8    1   64   160.0    
    4    9    1   64   160.0    
    4   10    1   64   160.0    
    4   11    1   64   160.0    
    4   12    1   64   160.0    
    4   13    1   64   160.0    
    4   14    1   64   160.0    
    4   15    1   64   160.0    
    4   16    1   64   160.0    
    4   17    1   64   160.0    
    4    1   17   64   140.0    
    4    2   17   64   140.0    
    4    3   17   64   140.0    
    4    4   17   64   140.0    
    4    5   17   64   140.0    
    4    6   17   64   140.0    
    4    7   17   64   140.0    
    4    8   17   64   140.0    
    4    9   17   64   140.0    
    4   10   17   64   140.0    
    4   11   17   64   140.0    
    4   12   17   64   140.0    
    4   13   17   64   140.0    
    4   14   17   64   140.0    
    4   15   17   64   140.0    
    4   16   17   64   140.0    
    4   17   17   64   140.0    
    5    1    1   64   160.0    
    5    2    1   64   160.0    
    5    3    1   64   160.0    
    5    4    1   64   160.0    
    5    5    1   64   160.0    
    5    6    1   64   160.0    
    5    7    1   64   160.0    
    5    8    1   64   160.0    
    5    9    1   64   160.0    
    5   10    1   64   160.0    
    5   11    1   64   160.0    
    5   12    1   64   160.0    
    5   13    1   64   160.0    
    5   14    1   64   160.0    
    5   15    1   64   160.0    
    5   16    1   64   160.0    
    5   17    1   64   160.0    
    5    1   17   64   140.0    
    5    2   17   64   140.0    
    5    3   17   64   140.0    
    5    4   17   64   140.0    
    5    5   17   64   140.0    
    5    6   17   64   140.0    
    5    7   17   64   140.0    
    5    8   17   64   140.0    
    5    9   17   64   140.0    
    5   10   17   64   140.0    
    5   11   17   64   140.0    
    5   12   17   64   140.0    
    5   13   17   64   140.0    
    5   14   17   64   140.0    
    5   15   17   64   140.0    
    5   16   17   64   140.0    
    5   17   17   64   140.0    
    1    1    2   64   158.9    
    1    1    3   64   157.3    
    1    1    4   64   155.8    
    1    1    5   64   154.2    
    1    1    6   64   152.7    
    1    1    7   64   151.5    
    1    1    8   64   150.8    
    1    1    9   64   150.0    
    1    1   10   64   149.2    
    1    1   11   64   148.5    
    1    1   12   64   147.3    
    1    1   13   64   145.8    
    1    1   14   64   144.2    
    1    1   15   64   142.7    
    1    1   16   64   141.1    
    1   17    2   64   158.9    
    1   17    3   64   157.3    
    1   17    4   64   155.8    
    1   17    5   64   154.2    
    1   17    6   64   152.7    
    1   17    7   64   151.5    
    1   17    8   64   150.8    
    1   17    9   64   150.0    
    1   17   10   64   149.2    
    1   17   11   64   148.5    
    1   17   12   64   147.3    
    1   17   13   64   145.8    
    1   17   14   64   144.2    
    1   17   15   64   142.7    
    1   17   16   64   141.1    
    2    1    2   64   158.9    
    2    1    3   64   157.3    
    2    1    4   64   155.8    
    2    1    5   64   154.2    
    2    1    6   64   152.7    
    2    1    7   64   151.5    
    2    1    8   64   150.8    
    2    1    9   64   150.0    
    2    1   10   64   149.2    
    2    1   11   64   148.5    
    2    1   12   64   147.3    
    2    1   13   64   145.8    
    2    1   14   64   144.2    
    2    1   15   64   142.7    
    2    1   16   64   141.1    
    2   17    2   64   158.9    
    2   17    3   64   157.3    
    2   17    4   64   155.8    
    2   17    5   64   154.2    
    2   17    6   64   152.7    
    2   17    7   64   151.5    
    2   17    8   64   150.8    
    2   17    9   64   150.0    
    2   17   10   64   149.2    
    2   17   11   64   148.5    
    2   17   12   64   147.3    
    2   17   13   64   145.8    
    2   17   14   64   144.2    
    2   17   15   64   142.7    
    2   17   16   64   141.1    
    3    1    2   64   158.9    
    3    1    3   64   157.3    
    3    1    4   64   155.8    
    3    1    5   64   154.2    
    3    1    6   64   152.7    
    3    1    7   64   151.5    
    3    1    8   64   150.8    
    3    1    9   64   150.0    
    3    1   10   64   149.2    
    3    1   11   64   148.5    
    3    1   12   64   147.3    
    3    1   13   64   145.8    
    3    1   14   64   144.2    
    3    1   15   64   142.7    
    3    1   16   64   141.1    
    3   17    2   64   158.9    
    3   17    3   64   157.3    
    3   17    4   64   155.8    
    3   17    5   64   154.2    
    3   17    6   64   152.7    
    3   17    7   64   151.5    
    3   17    8   64   150.8    
    3   17    9   64   150.0    
    3   17   10   64   149.2    
    3   17   11   64   148.5    
    3   17   12   64   147.3    
    3   17   13   64   145.8    
    3   17   14   64   144.2    
    3   17   15   64   142.7    
    3   17   16   64   141.1    
    4    1    2   64   158.9    
    4    1    3   64   157.3    
    4    1    4   64   155.8    
    4    1    5   64   154.2    
    4    1    6   64   152.7    
    4    1    7   64   151.5    
    4    1    8   64   150.8    
    4    1    9   64   150.0    
    4    1   10   64   149.2    
    4    1   11   64   148.5    
    4    1   12   64   147.3    
    4    1   13   64   145.8    
    4    1   14   64   144.2    
    4    1   15   64   142.7    
    4    1   16   64   141.1    
    4   17    2   64   158.9    
    4   17    3   64   157.3    
    4   17    4   64   155.8    
    4   17    5   64   154.2    
    4   17    6   64   152.7    
    4   17    7   64   151.5    
    4   17    8   64   150.8    
    4   17    9   64   150.0    
    4   17   10   64   149.2    
    4   17   11   64   148.5    
    4   17   12   64   147.3    
    4   17   13   64   145.8    
    4   17   14   64   144.2    
    4   17   15   64   142.7    
    4   17   16   64   141.1    
    5    1    2   64   158.9    
    5    1    3   64   157.3    
    5    1    4   64   155.8    
    5    1    5   64   154.2    
    5    1    6   64   152.7    
    5    1    7   64   151.5    
    5    1    8   64   150.8    
    5    1    9   64   150.0    
    5    1   10   64   149.2    
    5    1   11   64   148.5    
    5    1   12   64   147.3    
    5    1   13   64   145.8    
    5    1   14   64   144.2    
    5    1   15   64   142.7    
    5    1   16   64   141.1    
    5   17    2   64   158.9    
    5   17    3   64   157.3    
    5   17    4   64   155.8    
    5   17    5   64   154.2    
    5   17    6   64   152.7    
    5   17    7   64   151.5    
    5   17    8   64   150.8    
    5   17    9   64   150.0    
    5   17   10   64   149.2    
    5   17   11   64   148.5    
    5   17   12   64   147.3    
    5   17   13   64   145.8    
    5   17   14   64   144.2    
    5   17   15   64   142.7    
    5   17   16   64   141.1    

 LAK7 -- LAKE PACKAGE, VERSION 7, 6/28/2006 INPUT READ FROM UNIT 16
 SPACE ALLOCATION FOR    722 GRID CELL FACES ADJACENT TOLAKES
 MAXIMUM NUMBER OF LAKES IS  1 FOR THIS SIMULATION
 CELL-BY-CELL SEEPAGES WILL NOT BE PRINTED OR SAVED


 NEWTON ITERATION METHOD FOR COMPUTING LAKE STAGE DURING STEADY-STATE STRESS PERIODS HAS BEEN MODIFIED:
 SPECIFIED THETA OF  0.500 WILL BE AUTOMATICALLY CHANGED TO 1.0 FOR ALL STEADY STATE STRESS PERIODS.
 MAXIMUM NUMBER OF STEADY-STATE ITERATIONS (NSSITR) =    50
 CLOSURE CRITERIA FOR STEADY-STATE LAKE STAGE (SSCNCR) = 1.000000E-03



 SIP -- STRONGLY-IMPLICIT PROCEDURE SOLUTION PACKAGE
                    VERSION 7, 5/2/2005 INPUT READ FROM UNIT   13
 MAXIMUM OF 500 ITERATIONS ALLOWED FOR CLOSURE
  5 ITERATION PARAMETERS

          SOLUTION BY THE STRONGLY IMPLICIT PROCEDURE
          -------------------------------------------
 MAXIMUM ITERATIONS ALLOWED FOR CLOSURE =      500
                 ACCELERATION PARAMETER =     1.0000    
      HEAD CHANGE CRITERION FOR CLOSURE =    0.10000E-03
      SIP HEAD CHANGE PRINTOUT INTERVAL =        1

     CALCULATE ITERATION PARAMETERS FROM MODEL CALCULATED WSEED
1
                            STRESS PERIOD NO.    1, LENGTH =   1.000000    
                            -----------------------------------------------

                              NUMBER OF TIME STEPS =     1

                               MULTIPLIER FOR DELT =     1.000

                            INITIAL TIME STEP SIZE =   1.000000    



                         ET SURFACE
 READING ON UNIT   11 WITH FORMAT: (19F6.1)            

         1     2     3     4     5     6     7     8     9    10    11    12    13    14    15    16    17
 .........................................................................................................
   1  160.0 159.0 157.4 155.9 154.3 152.7 151.6 150.8 150.0 149.2 148.4 147.3 145.7 144.1 142.6 141.0 140.0
   2  160.0 159.0 157.4 155.9 154.3 152.7 151.6 150.8 150.0 149.2 148.4 147.3 145.7 144.1 142.6 141.0 140.0
   3  160.0 159.0 157.4 155.9 154.3 152.7 151.6 150.8 150.0 149.2 148.4 147.3 145.7 144.1 142.6 141.0 140.0
   4  160.0 159.0 157.4 155.9 154.3 152.7 151.6 150.8 150.0 149.2 148.4 147.3 145.7 144.1 142.6 141.0 140.0
   5  160.0 159.0 157.4 155.9 154.3 152.7 151.6 150.8 150.0 149.2 148.4 147.3 145.7 144.1 142.6 141.0 140.0
   6  160.0 159.0 157.4 155.9 154.3 152.7 151.6 150.8 150.0 149.2 148.4 147.3 145.7 144.1 142.6 141.0 140.0
   7  160.0 159.0 157.4 155.9 154.3 152.7 105.0 105.0 105.0 105.0 105.0 147.3 145.7 144.1 142.6 141.0 140.0
   8  160.0 159.0 157.4 155.9 154.3 152.7 105.0  95.0  95.0  95.0 105.0 147.3 145.7 144.1 142.6 141.0 140.0
   9  160.0 159.0 157.4 155.9 154.3 152.7 105.0  95.0  95.0  95.0 105.0 147.3 145.7 144.1 142.6 141.0 140.0
  10  160.0 159.0 157.4 155.9 154.3 152.7 105.0  95.0  95.0  95.0 105.0 147.3 145.7 144.1 142.6 141.0 140.0
  11  160.0 159.0 157.4 155.9 154.3 152.7 105.0 105.0 105.0 105.0 105.0 147.3 145.7 144.1 142.6 141.0 140.0
  12  160.0 159.0 157.4 155.9 154.3 152.7 151.6 150.8 150.0 149.2 148.4 147.3 145.7 144.1 142.6 141.0 140.0
  13  160.0 159.0 157.4 155.9 154.3 152.7 151.6 150.8 150.0 149.2 148.4 147.3 145.7 144.1 142.6 141.0 140.0
  14  160.0 159.0 157.4 155.9 154.3 152.7 151.6 150.8 150.0 149.2 148.4 147.3 145.7 144.1 142.6 141.0 140.0
  15  160.0 159.0 157.4 155.9 154.3 152.7 151.6 150.8 150.0 149.2 148.4 147.3 145.7 144.1 142.6 141.0 140.0
  16  160.0 159.0 157.4 155.9 154.3 152.7 151.6 150.8 150.0 149.2 148.4 147.3 145.7 144.1 142.6 141.0 140.0
  17  160.0 159.0 157.4 155.9 154.3 152.7 151.6 150.8 150.0 149.2 148.4 147.3 145.7 144.1 142.6 141.0 140.0

  EVAPOTRANSPIRATION RATE =  1.410000E-02

         EXTINCTION DEPTH =   15.0000    

                 RECHARGE =  1.160000E-02


 LAKE PACKAGE ACTIVE:  CALCULATED LAKE STAGE FOR EACH TIME STEP WILL BE STORED IN HNEW ARRAY.



 INITIAL LAKE STAGE:  LAKE    STAGE    SS MIN    SS MAX

                        1   110.000   100.000   170.000




 If any subsequent steady-state stress periods, min. and max. stages for each lake will be read in Record 9a.





                      LAKE ID ARRAY FOR LAYER   1
 READING ON UNIT   16 WITH FORMAT: (24I3)              

        1   2   3   4   5   6   7   8   9  10  11  12  13  14  15  16  17
 ........................................................................
   1    0   0   0   0   0   0   0   0   0   0   0   0   0   0   0   0   0
   2    0   0   0   0   0   0   0   0   0   0   0   0   0   0   0   0   0
   3    0   0   0   0   0   0   0   0   0   0   0   0   0   0   0   0   0
   4    0   0   0   0   0   0   0   0   0   0   0   0   0   0   0   0   0
   5    0   0   0   0   0   0   0   0   0   0   0   0   0   0   0   0   0
   6    0   0   0   0   0   0   0   0   0   0   0   0   0   0   0   0   0
   7    0   0   0   0   0   0   1   1   1   1   1   0   0   0   0   0   0
   8    0   0   0   0   0   0   1   1   1   1   1   0   0   0   0   0   0
   9    0   0   0   0   0   0   1   1   1   1   1   0   0   0   0   0   0
  10    0   0   0   0   0   0   1   1   1   1   1   0   0   0   0   0   0
  11    0   0   0   0   0   0   1   1   1   1   1   0   0   0   0   0   0
  12    0   0   0   0   0   0   0   0   0   0   0   0   0   0   0   0   0
  13    0   0   0   0   0   0   0   0   0   0   0   0   0   0   0   0   0
  14    0   0   0   0   0   0   0   0   0   0   0   0   0   0   0   0   0
  15    0   0   0   0   0   0   0   0   0   0   0   0   0   0   0   0   0
  16    0   0   0   0   0   0   0   0   0   0   0   0   0   0   0   0   0
  17    0   0   0   0   0   0   0   0   0   0   0   0   0   0   0   0   0



                      LAKE ID ARRAY FOR LAYER   2
 READING ON UNIT   16 WITH FORMAT: (24I3)              

        1   2   3   4   5   6   7   8   9  10  11  12  13  14  15  16  17
 ........................................................................
   1    0   0   0   0   0   0   0   0   0   0   0   0   0   0   0   0   0
   2    0   0   0   0   0   0   0   0   0   0   0   0   0   0   0   0   0
   3    0   0   0   0   0   0   0   0   0   0   0   0   0   0   0   0   0
   4    0   0   0   0   0   0   0   0   0   0   0   0   0   0   0   0   0
   5    0   0   0   0   0   0   0   0   0   0   0   0   0   0   0   0   0
   6    0   0   0   0   0   0   0   0   0   0   0   0   0   0   0   0   0
   7    0   0   0   0   0   0   0   0   0   0   0   0   0   0   0   0   0
   8    0   0   0   0   0   0   0   1   1   1   0   0   0   0   0   0   0
   9    0   0   0   0   0   0   0   1   1   1   0   0   0   0   0   0   0
  10    0   0   0   0   0   0   0   1   1   1   0   0   0   0   0   0   0
  11    0   0   0   0   0   0   0   0   0   0   0   0   0   0   0   0   0
  12    0   0   0   0   0   0   0   0   0   0   0   0   0   0   0   0   0
  13    0   0   0   0   0   0   0   0   0   0   0   0   0   0   0   0   0
  14    0   0   0   0   0   0   0   0   0   0   0   0   0   0   0   0   0
  15    0   0   0   0   0   0   0   0   0   0   0   0   0   0   0   0   0
  16    0   0   0   0   0   0   0   0   0   0   0   0   0   0   0   0   0
  17    0   0   0   0   0   0   0   0   0   0   0   0   0   0   0   0   0

            LAKE ID ARRAY =              0 FOR LAYER   3

            LAKE ID ARRAY =              0 FOR LAYER   4

            LAKE ID ARRAY =              0 FOR LAYER   5





   LAKEBED LEAKANCE ARRAY =  0.100000     FOR LAYER   1

   LAKEBED LEAKANCE ARRAY =  0.100000     FOR LAYER   2

   LAKEBED LEAKANCE ARRAY =  0.100000     FOR LAYER   3

   LAKEBED LEAKANCE ARRAY =  0.100000     FOR LAYER   4

   LAKEBED LEAKANCE ARRAY =  0.100000     FOR LAYER   5

       LOCATIONS, LAKE #, INTERFACE TYPE FOR GRID CELLS ADJACENT TO LAKES:
     -----------------------------------------------------------------------
     LAYER #    ROW #    COLUMN #   LAKE #  INTERFACE TYPE  LAKEBED LEAKANCE
         1         7         6         1         2             0.10000
         1         8         6         1         2             0.10000
         1         9         6         1         2             0.10000
         1        10         6         1         2             0.10000
         1        11         6         1         2             0.10000
         1         6         7         1         3             0.10000
         2         7         7         1         6             0.10000
         2         8         7         1         6             0.10000
         2         8         7         1         2             0.10000
         2         9         7         1         6             0.10000
         2         9         7         1         2             0.10000
         2        10         7         1         6             0.10000
         2        10         7         1         2             0.10000
         2        11         7         1         6             0.10000
         1        12         7         1         4             0.10000
         1         6         8         1         3             0.10000
         2         7         8         1         6             0.10000
         2         7         8         1         3             0.10000
         3         8         8         1         6             0.10000
         3         9         8         1         6             0.10000
         3        10         8         1         6             0.10000
         2        11         8         1         6             0.10000
         2        11         8         1         4             0.10000
         1        12         8         1         4             0.10000
         1         6         9         1         3             0.10000
         2         7         9         1         6             0.10000
         2         7         9         1         3             0.10000
         3         8         9         1         6             0.10000
         3         9         9         1         6             0.10000
         3        10         9         1         6             0.10000
         2        11         9         1         6             0.10000
         2        11         9         1         4             0.10000
         1        12         9         1         4             0.10000
         1         6        10         1         3             0.10000
         2         7        10         1         6             0.10000
         2         7        10         1         3             0.10000
         3         8        10         1         6             0.10000
         3         9        10         1         6             0.10000
         3        10        10         1         6             0.10000
         2        11        10         1         6             0.10000
         2        11        10         1         4             0.10000
         1        12        10         1         4             0.10000
         1         6        11         1         3             0.10000
         2         7        11         1         6             0.10000
         2         8        11         1         6             0.10000
         2         8        11         1         1             0.10000
         2         9        11         1         6             0.10000
         2         9        11         1         1             0.10000
         2        10        11         1         6             0.10000
         2        10        11         1         1             0.10000
         2        11        11         1         6             0.10000
         1        12        11         1         4             0.10000
         1         7        12         1         1             0.10000
         1         8        12         1         1             0.10000
         1         9        12         1         1             0.10000
         1        10        12         1         1             0.10000
         1        11        12         1         1             0.10000

     NUMBER OF LAKE-AQUIFER CELL INTERFACES =    57


 STAGE/VOLUME RELATION FOR LAKE  1

      STAGE        VOLUME        AREA

   9.70000E+01   0.00000E+00   2.25000E+06
   9.72000E+01   4.49993E+05   2.25000E+06
   9.74000E+01   8.99986E+05   2.25000E+06
   9.76000E+01   1.34998E+06   2.25000E+06
   9.78000E+01   1.79997E+06   2.25000E+06
   9.80000E+01   2.24997E+06   2.25000E+06
   9.82000E+01   2.69996E+06   2.25000E+06
   9.84000E+01   3.14995E+06   2.25000E+06
   9.86000E+01   3.59994E+06   2.25000E+06
   9.88000E+01   4.04994E+06   2.25000E+06
   9.90000E+01   4.49993E+06   2.25000E+06
   9.92000E+01   4.94992E+06   2.25000E+06
   9.94000E+01   5.39992E+06   2.25000E+06
   9.96000E+01   5.84991E+06   2.25000E+06
   9.98000E+01   6.29990E+06   2.25000E+06
   1.00000E+02   6.74990E+06   2.25000E+06
   1.00200E+02   7.19989E+06   2.25000E+06
   1.00400E+02   7.64988E+06   2.25000E+06
   1.00600E+02   8.09988E+06   2.25000E+06
   1.00800E+02   8.54987E+06   2.25000E+06
   1.01000E+02   8.99986E+06   2.25000E+06
   1.01200E+02   9.44986E+06   2.25000E+06
   1.01400E+02   9.89985E+06   2.25000E+06
   1.01600E+02   1.03498E+07   2.25000E+06
   1.01800E+02   1.07998E+07   2.25000E+06
   1.02000E+02   1.12498E+07   2.25000E+06
   1.02200E+02   1.16998E+07   2.25000E+06
   1.02400E+02   1.21498E+07   2.25000E+06
   1.02600E+02   1.25998E+07   2.25000E+06
   1.02800E+02   1.30498E+07   2.25000E+06
   1.03000E+02   1.34998E+07   2.25000E+06
   1.03200E+02   1.39498E+07   2.25000E+06
   1.03400E+02   1.43998E+07   2.25000E+06
   1.03600E+02   1.48498E+07   2.25000E+06
   1.03800E+02   1.52998E+07   2.25000E+06
   1.04000E+02   1.57498E+07   2.25000E+06
   1.04200E+02   1.61998E+07   2.25000E+06
   1.04400E+02   1.66497E+07   2.25000E+06
   1.04600E+02   1.70997E+07   2.25000E+06
   1.04800E+02   1.75497E+07   2.25000E+06
   1.05000E+02   1.79997E+07   2.25000E+06
   1.05200E+02   1.84497E+07   2.25000E+06
   1.05400E+02   1.88997E+07   2.25000E+06
   1.05600E+02   1.93497E+07   2.25000E+06
   1.05800E+02   1.97997E+07   2.25000E+06
   1.06000E+02   2.02497E+07   2.25000E+06
   1.06200E+02   2.06997E+07   2.25000E+06
   1.06400E+02   2.11497E+07   2.25000E+06
   1.06600E+02   2.15997E+07   2.25000E+06
   1.06800E+02   2.20497E+07   2.25000E+06
   1.07000E+02   2.24997E+07   2.25000E+06
   1.07200E+02   2.37490E+07   6.25000E+06
   1.07400E+02   2.49990E+07   6.25000E+06
   1.07600E+02   2.62490E+07   6.25000E+06
   1.07800E+02   2.74990E+07   6.25000E+06
   1.08000E+02   2.87490E+07   6.25000E+06
   1.08200E+02   2.99989E+07   6.25000E+06
   1.08400E+02   3.12489E+07   6.25000E+06
   1.08600E+02   3.24989E+07   6.25000E+06
   1.08800E+02   3.37489E+07   6.25000E+06
   1.09000E+02   3.49989E+07   6.25000E+06
   1.09200E+02   3.62488E+07   6.25000E+06
   1.09400E+02   3.74988E+07   6.25000E+06
   1.09600E+02   3.87488E+07   6.25000E+06
   1.09800E+02   3.99988E+07   6.25000E+06
   1.10000E+02   4.12488E+07   6.25000E+06
   1.10200E+02   4.24987E+07   6.25000E+06
   1.10400E+02   4.37487E+07   6.25000E+06
   1.10600E+02   4.49987E+07   6.25000E+06
   1.10800E+02   4.62487E+07   6.25000E+06
   1.11000E+02   4.74987E+07   6.25000E+06
   1.11200E+02   4.87486E+07   6.25000E+06
   1.11400E+02   4.99986E+07   6.25000E+06
   1.11600E+02   5.12486E+07   6.25000E+06
   1.11800E+02   5.24986E+07   6.25000E+06
   1.12000E+02   5.37486E+07   6.25000E+06
   1.12200E+02   5.49986E+07   6.25000E+06
   1.12400E+02   5.62485E+07   6.25000E+06
   1.12600E+02   5.74985E+07   6.25000E+06
   1.12800E+02   5.87485E+07   6.25000E+06
   1.13000E+02   5.99985E+07   6.25000E+06
   1.13200E+02   6.12485E+07   6.25000E+06
   1.13400E+02   6.24984E+07   6.25000E+06
   1.13600E+02   6.37484E+07   6.25000E+06
   1.13800E+02   6.49984E+07   6.25000E+06
   1.14000E+02   6.62484E+07   6.25000E+06
   1.14200E+02   6.74984E+07   6.25000E+06
   1.14400E+02   6.87483E+07   6.25000E+06
   1.14600E+02   6.99983E+07   6.25000E+06
   1.14800E+02   7.12483E+07   6.25000E+06
   1.15000E+02   7.24983E+07   6.25000E+06
   1.15200E+02   7.37483E+07   6.25000E+06
   1.15400E+02   7.49982E+07   6.25000E+06
   1.15600E+02   7.62482E+07   6.25000E+06
   1.15800E+02   7.74982E+07   6.25000E+06
   1.16000E+02   7.87482E+07   6.25000E+06
   1.16200E+02   7.99982E+07   6.25000E+06
   1.16400E+02   8.12482E+07   6.25000E+06
   1.16600E+02   8.24981E+07   6.25000E+06
   1.16800E+02   8.37481E+07   6.25000E+06
   1.17000E+02   8.49981E+07   6.25000E+06
   1.17200E+02   8.62481E+07   6.25000E+06
   1.17400E+02   8.74981E+07   6.25000E+06
   1.17600E+02   8.87480E+07   6.25000E+06
   1.17800E+02   8.99980E+07   6.25000E+06
   1.18000E+02   9.12480E+07   6.25000E+06
   1.18200E+02   9.24980E+07   6.25000E+06
   1.18400E+02   9.37480E+07   6.25000E+06
   1.18600E+02   9.49979E+07   6.25000E+06
   1.18800E+02   9.62479E+07   6.25000E+06
   1.19000E+02   9.74979E+07   6.25000E+06
   1.19200E+02   9.87479E+07   6.25000E+06
   1.19400E+02   9.99979E+07   6.25000E+06
   1.19600E+02   1.01248E+08   6.25000E+06
   1.19800E+02   1.02498E+08   6.25000E+06
   1.20000E+02   1.03748E+08   6.25000E+06
   1.20200E+02   1.04998E+08   6.25000E+06
   1.20400E+02   1.06248E+08   6.25000E+06
   1.20600E+02   1.07498E+08   6.25000E+06
   1.20800E+02   1.08748E+08   6.25000E+06
   1.21000E+02   1.09998E+08   6.25000E+06
   1.21200E+02   1.11248E+08   6.25000E+06
   1.21400E+02   1.12498E+08   6.25000E+06
   1.21600E+02   1.13748E+08   6.25000E+06
   1.21800E+02   1.14998E+08   6.25000E+06
   1.22000E+02   1.16248E+08   6.25000E+06
   1.22200E+02   1.17498E+08   6.25000E+06
   1.22400E+02   1.18748E+08   6.25000E+06
   1.22600E+02   1.19998E+08   6.25000E+06
   1.22800E+02   1.21248E+08   6.25000E+06
   1.23000E+02   1.22498E+08   6.25000E+06
   1.23200E+02   1.23748E+08   6.25000E+06
   1.23400E+02   1.24997E+08   6.25000E+06
   1.23600E+02   1.26247E+08   6.25000E+06
   1.23800E+02   1.27497E+08   6.25000E+06
   1.24000E+02   1.28747E+08   6.25000E+06
   1.24200E+02   1.29997E+08   6.25000E+06
   1.24400E+02   1.31247E+08   6.25000E+06
   1.24600E+02   1.32497E+08   6.25000E+06
   1.24800E+02   1.33747E+08   6.25000E+06
   1.25000E+02   1.34997E+08   6.25000E+06
   1.25200E+02   1.36247E+08   6.25000E+06
   1.25400E+02   1.37497E+08   6.25000E+06
   1.25600E+02   1.38747E+08   6.25000E+06
   1.25800E+02   1.39997E+08   6.25000E+06
   1.26000E+02   1.41247E+08   6.25000E+06
   1.26200E+02   1.42497E+08   6.25000E+06
   1.26400E+02   1.43747E+08   6.25000E+06
   1.26600E+02   1.44997E+08   6.25000E+06
   1.26800E+02   1.46247E+08   6.25000E+06
   1.27000E+02   1.47497E+08   6.25000E+06


 NUMBER OF CONNECTED LAKE SYSTEMS IN SIMULATION IS   0

 LAKE       PRECIP     EVAP     RUNOFF   WITHDRAW   BOTTOM     AREA
----------------------------------------------------------------------
   1     1.160E-02 1.030E-02 0.000E+00  0.000E+00 9.700E+01 6.250E+06




         C               INTERFACE CONDUCTANCES BETWEEN LAKE AND AQUIFER CELLS
   L     O          (IF TYPE = 6, CONDUCTANCE (L^2/T) IS BETWEEN AQUIFER CELL AND OVERLYING LAKE CELL.)
   A     L  L  T    (IF TYPE = 1 TO 4, CONDUCTANCES ARE PER UNIT SATURATED THICKNESS (L/T).)
   Y  R  U  A  Y
   E  O  M  K  P                        LAKEBED      C O N D U C T A N C E S
   R  W  N  E  E     DELTA Y   DELTA X  LEAKANCE   LAKEBED   AQUIFER  COMBINED
 _______________________________________________________________________________
   1  7  6  1  2    5.00E+02  1.00E+03  1.00E-01  5.00E+01  3.00E+01  1.88E+01
   1  8  6  1  2    5.00E+02  1.00E+03  1.00E-01  5.00E+01  3.00E+01  1.88E+01
   1  9  6  1  2    5.00E+02  1.00E+03  1.00E-01  5.00E+01  3.00E+01  1.88E+01
   1 10  6  1  2    5.00E+02  1.00E+03  1.00E-01  5.00E+01  3.00E+01  1.88E+01
   1 11  6  1  2    5.00E+02  1.00E+03  1.00E-01  5.00E+01  3.00E+01  1.88E+01
   1  6  7  1  3    1.00E+03  5.00E+02  1.00E-01  5.00E+01  3.00E+01  1.88E+01
   2  7  7  1  6    5.00E+02  5.00E+02  1.00E-01  2.50E+04  1.50E+06  2.46E+04
   2  8  7  1  6    5.00E+02  5.00E+02  1.00E-01  2.50E+04  1.50E+06  2.46E+04
   2  8  7  1  2    5.00E+02  5.00E+02  1.00E-01  5.00E+01  6.00E+01  2.73E+01
   2  9  7  1  6    5.00E+02  5.00E+02  1.00E-01  2.50E+04  1.50E+06  2.46E+04
   2  9  7  1  2    5.00E+02  5.00E+02  1.00E-01  5.00E+01  6.00E+01  2.73E+01
   2 10  7  1  6    5.00E+02  5.00E+02  1.00E-01  2.50E+04  1.50E+06  2.46E+04
   2 10  7  1  2    5.00E+02  5.00E+02  1.00E-01  5.00E+01  6.00E+01  2.73E+01
   2 11  7  1  6    5.00E+02  5.00E+02  1.00E-01  2.50E+04  1.50E+06  2.46E+04
   1 12  7  1  4    1.00E+03  5.00E+02  1.00E-01  5.00E+01  3.00E+01  1.88E+01
   1  6  8  1  3    1.00E+03  5.00E+02  1.00E-01  5.00E+01  3.00E+01  1.88E+01
   2  7  8  1  6    5.00E+02  5.00E+02  1.00E-01  2.50E+04  1.50E+06  2.46E+04
   2  7  8  1  3    5.00E+02  5.00E+02  1.00E-01  5.00E+01  6.00E+01  2.73E+01
   3  8  8  1  6    5.00E+02  5.00E+02  1.00E-01  2.50E+04  1.50E+06  2.46E+04
   3  9  8  1  6    5.00E+02  5.00E+02  1.00E-01  2.50E+04  1.50E+06  2.46E+04
   3 10  8  1  6    5.00E+02  5.00E+02  1.00E-01  2.50E+04  1.50E+06  2.46E+04
   2 11  8  1  6    5.00E+02  5.00E+02  1.00E-01  2.50E+04  1.50E+06  2.46E+04
   2 11  8  1  4    5.00E+02  5.00E+02  1.00E-01  5.00E+01  6.00E+01  2.73E+01
   1 12  8  1  4    1.00E+03  5.00E+02  1.00E-01  5.00E+01  3.00E+01  1.88E+01
   1  6  9  1  3    1.00E+03  5.00E+02  1.00E-01  5.00E+01  3.00E+01  1.88E+01
   2  7  9  1  6    5.00E+02  5.00E+02  1.00E-01  2.50E+04  1.50E+06  2.46E+04
   2  7  9  1  3    5.00E+02  5.00E+02  1.00E-01  5.00E+01  6.00E+01  2.73E+01
   3  8  9  1  6    5.00E+02  5.00E+02  1.00E-01  2.50E+04  1.50E+06  2.46E+04
   3  9  9  1  6    5.00E+02  5.00E+02  1.00E-01  2.50E+04  1.50E+06  2.46E+04
   3 10  9  1  6    5.00E+02  5.00E+02  1.00E-01  2.50E+04  1.50E+06  2.46E+04
   2 11  9  1  6    5.00E+02  5.00E+02  1.00E-01  2.50E+04  1.50E+06  2.46E+04
   2 11  9  1  4    5.00E+02  5.00E+02  1.00E-01  5.00E+01  6.00E+01  2.73E+01
   1 12  9  1  4    1.00E+03  5.00E+02  1.00E-01  5.00E+01  3.00E+01  1.88E+01
   1  6 10  1  3    1.00E+03  5.00E+02  1.00E-01  5.00E+01  3.00E+01  1.88E+01
   2  7 10  1  6    5.00E+02  5.00E+02  1.00E-01  2.50E+04  1.50E+06  2.46E+04
   2  7 10  1  3    5.00E+02  5.00E+02  1.00E-01  5.00E+01  6.00E+01  2.73E+01
   3  8 10  1  6    5.00E+02  5.00E+02  1.00E-01  2.50E+04  1.50E+06  2.46E+04
   3  9 10  1  6    5.00E+02  5.00E+02  1.00E-01  2.50E+04  1.50E+06  2.46E+04
   3 10 10  1  6    5.00E+02  5.00E+02  1.00E-01  2.50E+04  1.50E+06  2.46E+04
   2 11 10  1  6    5.00E+02  5.00E+02  1.00E-01  2.50E+04  1.50E+06  2.46E+04
   2 11 10  1  4    5.00E+02  5.00E+02  1.00E-01  5.00E+01  6.00E+01  2.73E+01
   1 12 10  1  4    1.00E+03  5.00E+02  1.00E-01  5.00E+01  3.00E+01  1.88E+01
   1  6 11  1  3    1.00E+03  5.00E+02  1.00E-01  5.00E+01  3.00E+01  1.88E+01
   2  7 11  1  6    5.00E+02  5.00E+02  1.00E-01  2.50E+04  1.50E+06  2.46E+04
   2  8 11  1  6    5.00E+02  5.00E+02  1.00E-01  2.50E+04  1.50E+06  2.46E+04
   2  8 11  1  1    5.00E+02  5.00E+02  1.00E-01  5.00E+01  6.00E+01  2.73E+01
   2  9 11  1  6    5.00E+02  5.00E+02  1.00E-01  2.50E+04  1.50E+06  2.46E+04
   2  9 11  1  1    5.00E+02  5.00E+02  1.00E-01  5.00E+01  6.00E+01  2.73E+01
   2 10 11  1  6    5.00E+02  5.00E+02  1.00E-01  2.50E+04  1.50E+06  2.46E+04
   2 10 11  1  1    5.00E+02  5.00E+02  1.00E-01  5.00E+01  6.00E+01  2.73E+01
   2 11 11  1  6    5.00E+02  5.00E+02  1.00E-01  2.50E+04  1.50E+06  2.46E+04
   1 12 11  1  4    1.00E+03  5.00E+02  1.00E-01  5.00E+01  3.00E+01  1.88E+01
   1  7 12  1  1    5.00E+02  1.00E+03  1.00E-01  5.00E+01  3.00E+01  1.88E+01
   1  8 12  1  1    5.00E+02  1.00E+03  1.00E-01  5.00E+01  3.00E+01  1.88E+01
   1  9 12  1  1    5.00E+02  1.00E+03  1.00E-01  5.00E+01  3.00E+01  1.88E+01
   1 10 12  1  1    5.00E+02  1.00E+03  1.00E-01  5.00E+01  3.00E+01  1.88E+01
   1 11 12  1  1    5.00E+02  1.00E+03  1.00E-01  5.00E+01  3.00E+01  1.88E+01


     NOTE: INFORMATION ABOUT CALCULATED LAKE/AQUIFER CONDUCTANCES WHEN USING BCF PACKAGE FOLLOWS: 

 IF WETDRY FLAG NOT TURNED ON, VERTICAL LEAKANCES ARE NOT SAVED:
 THEREFORE, LAKE/AQUIFER CONDUCTANCES ARE BASED SOLELY ON LAKEBED SPECIFICATION




 
 SOLVING FOR HEAD 
 ALL LAKES CONVERGED AFTER   2  ITERATIONS

 AVERAGE SEED = 0.00000194
 MINIMUM SEED = 0.00000137

     5 ITERATION PARAMETERS CALCULATED FROM AVERAGE SEED:

  0.000000E+00 0.962690E+00 0.998608E+00 0.999948E+00 0.999998E+00
 ALL LAKES CONVERGED AFTER   2  ITERATIONS
 ALL LAKES CONVERGED AFTER   2  ITERATIONS
 ALL LAKES CONVERGED AFTER   2  ITERATIONS
 ALL LAKES CONVERGED AFTER   2  ITERATIONS
 ALL LAKES CONVERGED AFTER   2  ITERATIONS
 ALL LAKES CONVERGED AFTER   2  ITERATIONS
 ALL LAKES CONVERGED AFTER   2  ITERATIONS
 ALL LAKES CONVERGED AFTER   2  ITERATIONS
 ALL LAKES CONVERGED AFTER   2  ITERATIONS
 ALL LAKES CONVERGED AFTER   2  ITERATIONS
 ALL LAKES CONVERGED AFTER   2  ITERATIONS
 ALL LAKES CONVERGED AFTER   2  ITERATIONS
 ALL LAKES CONVERGED AFTER   2  ITERATIONS
 ALL LAKES CONVERGED AFTER   2  ITERATIONS
 ALL LAKES CONVERGED AFTER   2  ITERATIONS
 ALL LAKES CONVERGED AFTER   2  ITERATIONS
 ALL LAKES CONVERGED AFTER   2  ITERATIONS
 ALL LAKES CONVERGED AFTER   2  ITERATIONS
 ALL LAKES CONVERGED AFTER   2  ITERATIONS
 ALL LAKES CONVERGED AFTER   2  ITERATIONS
 ALL LAKES CONVERGED AFTER   2  ITERATIONS
 ALL LAKES CONVERGED AFTER   2  ITERATIONS
 ALL LAKES CONVERGED AFTER   2  ITERATIONS
 ALL LAKES CONVERGED AFTER   2  ITERATIONS
 ALL LAKES CONVERGED AFTER   2  ITERATIONS
 ALL LAKES CONVERGED AFTER   2  ITERATIONS
 ALL LAKES CONVERGED AFTER   2  ITERATIONS
 ALL LAKES CONVERGED AFTER   2  ITERATIONS
 ALL LAKES CONVERGED AFTER   2  ITERATIONS
 ALL LAKES CONVERGED AFTER   2  ITERATIONS
 ALL LAKES CONVERGED AFTER   2  ITERATIONS
 ALL LAKES CONVERGED AFTER   2  ITERATIONS
 ALL LAKES CONVERGED AFTER   2  ITERATIONS
 ALL LAKES CONVERGED AFTER   2  ITERATIONS
 ALL LAKES CONVERGED AFTER   2  ITERATIONS
 ALL LAKES CONVERGED AFTER   2  ITERATIONS
 ALL LAKES CONVERGED AFTER   2  ITERATIONS
 ALL LAKES CONVERGED AFTER   2  ITERATIONS
 ALL LAKES CONVERGED AFTER   2  ITERATIONS
 ALL LAKES CONVERGED AFTER   2  ITERATIONS
 ALL LAKES CONVERGED AFTER   2  ITERATIONS
 ALL LAKES CONVERGED AFTER   2  ITERATIONS
 ALL LAKES CONVERGED AFTER   2  ITERATIONS
 ALL LAKES CONVERGED AFTER   2  ITERATIONS
 ALL LAKES CONVERGED AFTER   2  ITERATIONS
 ALL LAKES CONVERGED AFTER   2  ITERATIONS
 ALL LAKES CONVERGED AFTER   2  ITERATIONS
 ALL LAKES CONVERGED AFTER   2  ITERATIONS
 ALL LAKES CONVERGED AFTER   2  ITERATIONS
 ALL LAKES CONVERGED AFTER   2  ITERATIONS
 ALL LAKES CONVERGED AFTER   2  ITERATIONS
 ALL LAKES CONVERGED AFTER   2  ITERATIONS
 ALL LAKES CONVERGED AFTER   2  ITERATIONS
 ALL LAKES CONVERGED AFTER   2  ITERATIONS
 ALL LAKES CONVERGED AFTER   2  ITERATIONS
 ALL LAKES CONVERGED AFTER   2  ITERATIONS
 ALL LAKES CONVERGED AFTER   2  ITERATIONS
 ALL LAKES CONVERGED AFTER   2  ITERATIONS
 ALL LAKES CONVERGED AFTER   2  ITERATIONS
 ALL LAKES CONVERGED AFTER   2  ITERATIONS
 ALL LAKES CONVERGED AFTER   2  ITERATIONS
 ALL LAKES CONVERGED AFTER   2  ITERATIONS
 ALL LAKES CONVERGED AFTER   2  ITERATIONS
 ALL LAKES CONVERGED AFTER   2  ITERATIONS
 ALL LAKES CONVERGED AFTER   2  ITERATIONS
 ALL LAKES CONVERGED AFTER   2  ITERATIONS
 ALL LAKES CONVERGED AFTER   2  ITERATIONS
 ALL LAKES CONVERGED AFTER   2  ITERATIONS
 ALL LAKES CONVERGED AFTER   2  ITERATIONS
 ALL LAKES CONVERGED AFTER   2  ITERATIONS
 ALL LAKES CONVERGED AFTER   2  ITERATIONS
 ALL LAKES CONVERGED AFTER   2  ITERATIONS
 ALL LAKES CONVERGED AFTER   2  ITERATIONS
 ALL LAKES CONVERGED AFTER   2  ITERATIONS
 ALL LAKES CONVERGED AFTER   2  ITERATIONS
 ALL LAKES CONVERGED AFTER   2  ITERATIONS
 ALL LAKES CONVERGED AFTER   2  ITERATIONS
 ALL LAKES CONVERGED AFTER   2  ITERATIONS
 ALL LAKES CONVERGED AFTER   2  ITERATIONS
 ALL LAKES CONVERGED AFTER   2  ITERATIONS
 ALL LAKES CONVERGED AFTER   2  ITERATIONS
 ALL LAKES CONVERGED AFTER   2  ITERATIONS
 ALL LAKES CONVERGED AFTER   2  ITERATIONS
 ALL LAKES CONVERGED AFTER   2  ITERATIONS
 ALL LAKES CONVERGED AFTER   2  ITERATIONS
 ALL LAKES CONVERGED AFTER   2  ITERATIONS
 ALL LAKES CONVERGED AFTER   2  ITERATIONS
 ALL LAKES CONVERGED AFTER   2  ITERATIONS
 ALL LAKES CONVERGED AFTER   2  ITERATIONS
 ALL LAKES CONVERGED AFTER   2  ITERATIONS
 ALL LAKES CONVERGED AFTER   2  ITERATIONS
 ALL LAKES CONVERGED AFTER   2  ITERATIONS
 ALL LAKES CONVERGED AFTER   2  ITERATIONS
 ALL LAKES CONVERGED AFTER   2  ITERATIONS
 ALL LAKES CONVERGED AFTER   2  ITERATIONS
 ALL LAKES CONVERGED AFTER   2  ITERATIONS
 ALL LAKES CONVERGED AFTER   2  ITERATIONS
 ALL LAKES CONVERGED AFTER   2  ITERATIONS
 ALL LAKES CONVERGED AFTER   2  ITERATIONS
 ALL LAKES CONVERGED AFTER   2  ITERATIONS
 ALL LAKES CONVERGED AFTER   2  ITERATIONS
 ALL LAKES CONVERGED AFTER   2  ITERATIONS
 ALL LAKES CONVERGED AFTER   2  ITERATIONS
 ALL LAKES CONVERGED AFTER   2  ITERATIONS
 ALL LAKES CONVERGED AFTER   2  ITERATIONS
 ALL LAKES CONVERGED AFTER   2  ITERATIONS
 ALL LAKES CONVERGED AFTER   2  ITERATIONS
 ALL LAKES CONVERGED AFTER   2  ITERATIONS
 ALL LAKES CONVERGED AFTER   2  ITERATIONS
 ALL LAKES CONVERGED AFTER   2  ITERATIONS
 ALL LAKES CONVERGED AFTER   2  ITERATIONS
 ALL LAKES CONVERGED AFTER   2  ITERATIONS
 ALL LAKES CONVERGED AFTER   2  ITERATIONS
 ALL LAKES CONVERGED AFTER   2  ITERATIONS
 ALL LAKES CONVERGED AFTER   2  ITERATIONS
 ALL LAKES CONVERGED AFTER   2  ITERATIONS
 ALL LAKES CONVERGED AFTER   2  ITERATIONS
 ALL LAKES CONVERGED AFTER   2  ITERATIONS
 ALL LAKES CONVERGED AFTER   2  ITERATIONS
 ALL LAKES CONVERGED AFTER   2  ITERATIONS
 ALL LAKES CONVERGED AFTER   2  ITERATIONS
 ALL LAKES CONVERGED AFTER   2  ITERATIONS
 ALL LAKES CONVERGED AFTER   2  ITERATIONS
 ALL LAKES CONVERGED AFTER   2  ITERATIONS
 ALL LAKES CONVERGED AFTER   2  ITERATIONS
 ALL LAKES CONVERGED AFTER   2  ITERATIONS
 ALL LAKES CONVERGED AFTER   2  ITERATIONS
 ALL LAKES CONVERGED AFTER   2  ITERATIONS
 ALL LAKES CONVERGED AFTER   2  ITERATIONS
 ALL LAKES CONVERGED AFTER   2  ITERATIONS
 ALL LAKES CONVERGED AFTER   2  ITERATIONS
 ALL LAKES CONVERGED AFTER   2  ITERATIONS
 ALL LAKES CONVERGED AFTER   2  ITERATIONS
 ALL LAKES CONVERGED AFTER   2  ITERATIONS
 ALL LAKES CONVERGED AFTER   2  ITERATIONS
 ALL LAKES CONVERGED AFTER   2  ITERATIONS
 ALL LAKES CONVERGED AFTER   2  ITERATIONS
 ALL LAKES CONVERGED AFTER   2  ITERATIONS
 ALL LAKES CONVERGED AFTER   2  ITERATIONS
 ALL LAKES CONVERGED AFTER   2  ITERATIONS
 ALL LAKES CONVERGED AFTER   2  ITERATIONS
 ALL LAKES CONVERGED AFTER   2  ITERATIONS
 ALL LAKES CONVERGED AFTER   2  ITERATIONS
 ALL LAKES CONVERGED AFTER   2  ITERATIONS
 ALL LAKES CONVERGED AFTER   2  ITERATIONS
 ALL LAKES CONVERGED AFTER   2  ITERATIONS
 ALL LAKES CONVERGED AFTER   2  ITERATIONS
 ALL LAKES CONVERGED AFTER   2  ITERATIONS
 ALL LAKES CONVERGED AFTER   2  ITERATIONS
 ALL LAKES CONVERGED AFTER   2  ITERATIONS
 ALL LAKES CONVERGED AFTER   2  ITERATIONS
 ALL LAKES CONVERGED AFTER   2  ITERATIONS
 ALL LAKES CONVERGED AFTER   2  ITERATIONS
 ALL LAKES CONVERGED AFTER   2  ITERATIONS
 ALL LAKES CONVERGED AFTER   2  ITERATIONS
 ALL LAKES CONVERGED AFTER   2  ITERATIONS
 ALL LAKES CONVERGED AFTER   2  ITERATIONS
 ALL LAKES CONVERGED AFTER   2  ITERATIONS
 ALL LAKES CONVERGED AFTER   2  ITERATIONS
 ALL LAKES CONVERGED AFTER   2  ITERATIONS
 ALL LAKES CONVERGED AFTER   2  ITERATIONS
 ALL LAKES CONVERGED AFTER   2  ITERATIONS
 ALL LAKES CONVERGED AFTER   2  ITERATIONS
 ALL LAKES CONVERGED AFTER   2  ITERATIONS
 ALL LAKES CONVERGED AFTER   2  ITERATIONS
 ALL LAKES CONVERGED AFTER   2  ITERATIONS
 ALL LAKES CONVERGED AFTER   2  ITERATIONS
 ALL LAKES CONVERGED AFTER   2  ITERATIONS
 ALL LAKES CONVERGED AFTER   2  ITERATIONS
 ALL LAKES CONVERGED AFTER   2  ITERATIONS
 ALL LAKES CONVERGED AFTER   2  ITERATIONS
 ALL LAKES CONVERGED AFTER   2  ITERATIONS
 ALL LAKES CONVERGED AFTER   2  ITERATIONS
 ALL LAKES CONVERGED AFTER   2  ITERATIONS
 ALL LAKES CONVERGED AFTER   2  ITERATIONS
 ALL LAKES CONVERGED AFTER   2  ITERATIONS
 ALL LAKES CONVERGED AFTER   2  ITERATIONS
 ALL LAKES CONVERGED AFTER   2  ITERATIONS
 ALL LAKES CONVERGED AFTER   2  ITERATIONS
 ALL LAKES CONVERGED AFTER   2  ITERATIONS
 ALL LAKES CONVERGED AFTER   2  ITERATIONS
 ALL LAKES CONVERGED AFTER   2  ITERATIONS
 ALL LAKES CONVERGED AFTER   2  ITERATIONS
 ALL LAKES CONVERGED AFTER   2  ITERATIONS
 ALL LAKES CONVERGED AFTER   2  ITERATIONS
 ALL LAKES CONVERGED AFTER   2  ITERATIONS
 ALL LAKES CONVERGED AFTER   2  ITERATIONS
 ALL LAKES CONVERGED AFTER   2  ITERATIONS
 ALL LAKES CONVERGED AFTER   2  ITERATIONS
 ALL LAKES CONVERGED AFTER   2  ITERATIONS
 ALL LAKES CONVERGED AFTER   2  ITERATIONS
 ALL LAKES CONVERGED AFTER   2  ITERATIONS
 ALL LAKES CONVERGED AFTER   2  ITERATIONS
 ALL LAKES CONVERGED AFTER   2  ITERATIONS
 ALL LAKES CONVERGED AFTER   2  ITERATIONS
 ALL LAKES CONVERGED AFTER   2  ITERATIONS
 ALL LAKES CONVERGED AFTER   2  ITERATIONS
 ALL LAKES CONVERGED AFTER   2  ITERATIONS
 ALL LAKES CONVERGED AFTER   2  ITERATIONS
 ALL LAKES CONVERGED AFTER   2  ITERATIONS
 ALL LAKES CONVERGED AFTER   2  ITERATIONS
 ALL LAKES CONVERGED AFTER   2  ITERATIONS
 ALL LAKES CONVERGED AFTER   2  ITERATIONS
 ALL LAKES CONVERGED AFTER   2  ITERATIONS
 ALL LAKES CONVERGED AFTER   2  ITERATIONS
 ALL LAKES CONVERGED AFTER   2  ITERATIONS
 ALL LAKES CONVERGED AFTER   2  ITERATIONS
 ALL LAKES CONVERGED AFTER   2  ITERATIONS
 ALL LAKES CONVERGED AFTER   2  ITERATIONS
 ALL LAKES CONVERGED AFTER   2  ITERATIONS
 ALL LAKES CONVERGED AFTER   2  ITERATIONS
 ALL LAKES CONVERGED AFTER   2  ITERATIONS
 ALL LAKES CONVERGED AFTER   2  ITERATIONS
 ALL LAKES CONVERGED AFTER   2  ITERATIONS
 ALL LAKES CONVERGED AFTER   2  ITERATIONS
 ALL LAKES CONVERGED AFTER   2  ITERATIONS
 ALL LAKES CONVERGED AFTER   2  ITERATIONS
 ALL LAKES CONVERGED AFTER   2  ITERATIONS
 ALL LAKES CONVERGED AFTER   2  ITERATIONS
 ALL LAKES CONVERGED AFTER   2  ITERATIONS
 ALL LAKES CONVERGED AFTER   2  ITERATIONS
 ALL LAKES CONVERGED AFTER   2  ITERATIONS
 ALL LAKES CONVERGED AFTER   2  ITERATIONS
 ALL LAKES CONVERGED AFTER   2  ITERATIONS
 ALL LAKES CONVERGED AFTER   2  ITERATIONS
 ALL LAKES CONVERGED AFTER   2  ITERATIONS
 ALL LAKES CONVERGED AFTER   2  ITERATIONS
 ALL LAKES CONVERGED AFTER   2  ITERATIONS
 ALL LAKES CONVERGED AFTER   2  ITERATIONS
 ALL LAKES CONVERGED AFTER   2  ITERATIONS
 ALL LAKES CONVERGED AFTER   2  ITERATIONS
 ALL LAKES CONVERGED AFTER   2  ITERATIONS
 ALL LAKES CONVERGED AFTER   2  ITERATIONS
 ALL LAKES CONVERGED AFTER   2  ITERATIONS
 ALL LAKES CONVERGED AFTER   2  ITERATIONS
 ALL LAKES CONVERGED AFTER   2  ITERATIONS
 ALL LAKES CONVERGED AFTER   2  ITERATIONS
 ALL LAKES CONVERGED AFTER   2  ITERATIONS
 ALL LAKES CONVERGED AFTER   2  ITERATIONS
 ALL LAKES CONVERGED AFTER   2  ITERATIONS
 ALL LAKES CONVERGED AFTER   2  ITERATIONS
 ALL LAKES CONVERGED AFTER   2  ITERATIONS
 ALL LAKES CONVERGED AFTER   2  ITERATIONS
 ALL LAKES CONVERGED AFTER   2  ITERATIONS
 ALL LAKES CONVERGED AFTER   2  ITERATIONS
 ALL LAKES CONVERGED AFTER   2  ITERATIONS
 ALL LAKES CONVERGED AFTER   2  ITERATIONS
 ALL LAKES CONVERGED AFTER   2  ITERATIONS
 ALL LAKES CONVERGED AFTER   2  ITERATIONS
 ALL LAKES CONVERGED AFTER   2  ITERATIONS
 ALL LAKES CONVERGED AFTER   2  ITERATIONS
 ALL LAKES CONVERGED AFTER   2  ITERATIONS
 ALL LAKES CONVERGED AFTER   2  ITERATIONS
 ALL LAKES CONVERGED AFTER   2  ITERATIONS
 ALL LAKES CONVERGED AFTER   2  ITERATIONS
 ALL LAKES CONVERGED AFTER   2  ITERATIONS
 ALL LAKES CONVERGED AFTER   2  ITERATIONS
 ALL LAKES CONVERGED AFTER   2  ITERATIONS
 ALL LAKES CONVERGED AFTER   2  ITERATIONS
 ALL LAKES CONVERGED AFTER   2  ITERATIONS
 ALL LAKES CONVERGED AFTER   2  ITERATIONS
 ALL LAKES CONVERGED AFTER   2  ITERATIONS
 ALL LAKES CONVERGED AFTER   2  ITERATIONS
 ALL LAKES CONVERGED AFTER   2  ITERATIONS
 ALL LAKES CONVERGED AFTER   2  ITERATIONS
 ALL LAKES CONVERGED AFTER   2  ITERATIONS
 ALL LAKES CONVERGED AFTER   2  ITERATIONS
 ALL LAKES CONVERGED AFTER   2  ITERATIONS
 ALL LAKES CONVERGED AFTER   2  ITERATIONS
 ALL LAKES CONVERGED AFTER   2  ITERATIONS
 ALL LAKES CONVERGED AFTER   2  ITERATIONS
 ALL LAKES CONVERGED AFTER   2  ITERATIONS
 ALL LAKES CONVERGED AFTER   2  ITERATIONS
 ALL LAKES CONVERGED AFTER   2  ITERATIONS
 ALL LAKES CONVERGED AFTER   2  ITERATIONS
 ALL LAKES CONVERGED AFTER   2  ITERATIONS
 ALL LAKES CONVERGED AFTER   2  ITERATIONS
 ALL LAKES CONVERGED AFTER   2  ITERATIONS
 ALL LAKES CONVERGED AFTER   2  ITERATIONS
 ALL LAKES CONVERGED AFTER   2  ITERATIONS
 ALL LAKES CONVERGED AFTER   2  ITERATIONS
 ALL LAKES CONVERGED AFTER   2  ITERATIONS
 ALL LAKES CONVERGED AFTER   2  ITERATIONS
 ALL LAKES CONVERGED AFTER   2  ITERATIONS
 ALL LAKES CONVERGED AFTER   2  ITERATIONS
 ALL LAKES CONVERGED AFTER   2  ITERATIONS
 ALL LAKES CONVERGED AFTER   2  ITERATIONS
 ALL LAKES CONVERGED AFTER   2  ITERATIONS
 ALL LAKES CONVERGED AFTER   2  ITERATIONS
 ALL LAKES CONVERGED AFTER   2  ITERATIONS
 ALL LAKES CONVERGED AFTER   2  ITERATIONS
 ALL LAKES CONVERGED AFTER   2  ITERATIONS
 ALL LAKES CONVERGED AFTER   2  ITERATIONS
 ALL LAKES CONVERGED AFTER   2  ITERATIONS
 ALL LAKES CONVERGED AFTER   2  ITERATIONS
 ALL LAKES CONVERGED AFTER   2  ITERATIONS
 ALL LAKES CONVERGED AFTER   2  ITERATIONS
 ALL LAKES CONVERGED AFTER   2  ITERATIONS
 ALL LAKES CONVERGED AFTER   2  ITERATIONS
 ALL LAKES CONVERGED AFTER   2  ITERATIONS
 ALL LAKES CONVERGED AFTER   2  ITERATIONS
 ALL LAKES CONVERGED AFTER   2  ITERATIONS
 ALL LAKES CONVERGED AFTER   2  ITERATIONS
 ALL LAKES CONVERGED AFTER   2  ITERATIONS
 ALL LAKES CONVERGED AFTER   2  ITERATIONS
 ALL LAKES CONVERGED AFTER   2  ITERATIONS
 ALL LAKES CONVERGED AFTER   2  ITERATIONS
 ALL LAKES CONVERGED AFTER   2  ITERATIONS
 ALL LAKES CONVERGED AFTER   2  ITERATIONS
 ALL LAKES CONVERGED AFTER   1  ITERATIONS
 ALL LAKES CONVERGED AFTER   2  ITERATIONS
 ALL LAKES CONVERGED AFTER   2  ITERATIONS
 ALL LAKES CONVERGED AFTER   2  ITERATIONS
 ALL LAKES CONVERGED AFTER   2  ITERATIONS
 ALL LAKES CONVERGED AFTER   2  ITERATIONS
 ALL LAKES CONVERGED AFTER   2  ITERATIONS
 ALL LAKES CONVERGED AFTER   2  ITERATIONS
 ALL LAKES CONVERGED AFTER   2  ITERATIONS
 ALL LAKES CONVERGED AFTER   2  ITERATIONS
 ALL LAKES CONVERGED AFTER   1  ITERATIONS
 ALL LAKES CONVERGED AFTER   2  ITERATIONS
 ALL LAKES CONVERGED AFTER   2  ITERATIONS
 ALL LAKES CONVERGED AFTER   2  ITERATIONS
 ALL LAKES CONVERGED AFTER   1  ITERATIONS
 ALL LAKES CONVERGED AFTER   2  ITERATIONS
 ALL LAKES CONVERGED AFTER   2  ITERATIONS
 ALL LAKES CONVERGED AFTER   2  ITERATIONS
 ALL LAKES CONVERGED AFTER   1  ITERATIONS
 ALL LAKES CONVERGED AFTER   2  ITERATIONS
 ALL LAKES CONVERGED AFTER   1  ITERATIONS
 ALL LAKES CONVERGED AFTER   2  ITERATIONS
 ALL LAKES CONVERGED AFTER   2  ITERATIONS
 ALL LAKES CONVERGED AFTER   2  ITERATIONS
 ALL LAKES CONVERGED AFTER   1  ITERATIONS
 ALL LAKES CONVERGED AFTER   2  ITERATIONS
 ALL LAKES CONVERGED AFTER   2  ITERATIONS
 ALL LAKES CONVERGED AFTER   2  ITERATIONS
 ALL LAKES CONVERGED AFTER   1  ITERATIONS
 ALL LAKES CONVERGED AFTER   2  ITERATIONS
 ALL LAKES CONVERGED AFTER   1  ITERATIONS
 ALL LAKES CONVERGED AFTER   2  ITERATIONS
 ALL LAKES CONVERGED AFTER   2  ITERATIONS
 ALL LAKES CONVERGED AFTER   2  ITERATIONS
 ALL LAKES CONVERGED AFTER   1  ITERATIONS
 ALL LAKES CONVERGED AFTER   2  ITERATIONS
 ALL LAKES CONVERGED AFTER   2  ITERATIONS
 ALL LAKES CONVERGED AFTER   2  ITERATIONS
 ALL LAKES CONVERGED AFTER   1  ITERATIONS
 ALL LAKES CONVERGED AFTER   2  ITERATIONS
 ALL LAKES CONVERGED AFTER   1  ITERATIONS
 ALL LAKES CONVERGED AFTER   2  ITERATIONS
 ALL LAKES CONVERGED AFTER   1  ITERATIONS
 ALL LAKES CONVERGED AFTER   2  ITERATIONS
 ALL LAKES CONVERGED AFTER   1  ITERATIONS
 ALL LAKES CONVERGED AFTER   2  ITERATIONS
 ALL LAKES CONVERGED AFTER   1  ITERATIONS
 ALL LAKES CONVERGED AFTER   1  ITERATIONS
 ALL LAKES CONVERGED AFTER   1  ITERATIONS
 ALL LAKES CONVERGED AFTER   1  ITERATIONS
 ALL LAKES CONVERGED AFTER   1  ITERATIONS
 ALL LAKES CONVERGED AFTER   1  ITERATIONS
 ALL LAKES CONVERGED AFTER   1  ITERATIONS
 ALL LAKES CONVERGED AFTER   1  ITERATIONS
 ALL LAKES CONVERGED AFTER   1  ITERATIONS
 ALL LAKES CONVERGED AFTER   1  ITERATIONS
 ALL LAKES CONVERGED AFTER   1  ITERATIONS
 ALL LAKES CONVERGED AFTER   1  ITERATIONS
 ALL LAKES CONVERGED AFTER   1  ITERATIONS
 ALL LAKES CONVERGED AFTER   1  ITERATIONS
 ALL LAKES CONVERGED AFTER   1  ITERATIONS
 ALL LAKES CONVERGED AFTER   1  ITERATIONS
 ALL LAKES CONVERGED AFTER   1  ITERATIONS
 ALL LAKES CONVERGED AFTER   1  ITERATIONS
 ALL LAKES CONVERGED AFTER   1  ITERATIONS
 ALL LAKES CONVERGED AFTER   1  ITERATIONS
 ALL LAKES CONVERGED AFTER   1  ITERATIONS
 ALL LAKES CONVERGED AFTER   1  ITERATIONS
 ALL LAKES CONVERGED AFTER   1  ITERATIONS
 ALL LAKES CONVERGED AFTER   1  ITERATIONS
 ALL LAKES CONVERGED AFTER   1  ITERATIONS
 ALL LAKES CONVERGED AFTER   1  ITERATIONS
 ALL LAKES CONVERGED AFTER   1  ITERATIONS
 ALL LAKES CONVERGED AFTER   1  ITERATIONS
 ALL LAKES CONVERGED AFTER   1  ITERATIONS
 ALL LAKES CONVERGED AFTER   1  ITERATIONS
 ALL LAKES CONVERGED AFTER   1  ITERATIONS
 ALL LAKES CONVERGED AFTER   1  ITERATIONS
 ALL LAKES CONVERGED AFTER   1  ITERATIONS
 ALL LAKES CONVERGED AFTER   1  ITERATIONS
 ALL LAKES CONVERGED AFTER   1  ITERATIONS
 ALL LAKES CONVERGED AFTER   1  ITERATIONS
 ALL LAKES CONVERGED AFTER   1  ITERATIONS
 ALL LAKES CONVERGED AFTER   1  ITERATIONS
 ALL LAKES CONVERGED AFTER   1  ITERATIONS
 ALL LAKES CONVERGED AFTER   1  ITERATIONS
 ALL LAKES CONVERGED AFTER   1  ITERATIONS
 ALL LAKES CONVERGED AFTER   1  ITERATIONS
 ALL LAKES CONVERGED AFTER   1  ITERATIONS
 ALL LAKES CONVERGED AFTER   1  ITERATIONS
 ALL LAKES CONVERGED AFTER   1  ITERATIONS
 ALL LAKES CONVERGED AFTER   1  ITERATIONS
 ALL LAKES CONVERGED AFTER   1  ITERATIONS
 ALL LAKES CONVERGED AFTER   1  ITERATIONS
 ALL LAKES CONVERGED AFTER   1  ITERATIONS
 ALL LAKES CONVERGED AFTER   1  ITERATIONS
 ALL LAKES CONVERGED AFTER   1  ITERATIONS
 ALL LAKES CONVERGED AFTER   1  ITERATIONS
 ALL LAKES CONVERGED AFTER   1  ITERATIONS
 ALL LAKES CONVERGED AFTER   1  ITERATIONS
 ALL LAKES CONVERGED AFTER   1  ITERATIONS
 ALL LAKES CONVERGED AFTER   1  ITERATIONS
 ALL LAKES CONVERGED AFTER   1  ITERATIONS
 ALL LAKES CONVERGED AFTER   1  ITERATIONS
 ALL LAKES CONVERGED AFTER   1  ITERATIONS
 ALL LAKES CONVERGED AFTER   1  ITERATIONS
 ALL LAKES CONVERGED AFTER   1  ITERATIONS
 ALL LAKES CONVERGED AFTER   1  ITERATIONS
 ALL LAKES CONVERGED AFTER   1  ITERATIONS
 ALL LAKES CONVERGED AFTER   1  ITERATIONS
 ALL LAKES CONVERGED AFTER   1  ITERATIONS
 ALL LAKES CONVERGED AFTER   1  ITERATIONS
 ALL LAKES CONVERGED AFTER   1  ITERATIONS
 ALL LAKES CONVERGED AFTER   1  ITERATIONS
 ALL LAKES CONVERGED AFTER   1  ITERATIONS
 ALL LAKES CONVERGED AFTER   1  ITERATIONS
 ALL LAKES CONVERGED AFTER   1  ITERATIONS
 ALL LAKES CONVERGED AFTER   1  ITERATIONS
 ALL LAKES CONVERGED AFTER   1  ITERATIONS
 ALL LAKES CONVERGED AFTER   1  ITERATIONS
 ALL LAKES CONVERGED AFTER   1  ITERATIONS
 ALL LAKES CONVERGED AFTER   1  ITERATIONS
 ALL LAKES CONVERGED AFTER   1  ITERATIONS
 ALL LAKES CONVERGED AFTER   1  ITERATIONS
 ALL LAKES CONVERGED AFTER   1  ITERATIONS
 ALL LAKES CONVERGED AFTER   1  ITERATIONS
 ALL LAKES CONVERGED AFTER   1  ITERATIONS
 ALL LAKES CONVERGED AFTER   1  ITERATIONS
 ALL LAKES CONVERGED AFTER   1  ITERATIONS
 ALL LAKES CONVERGED AFTER   1  ITERATIONS
 ALL LAKES CONVERGED AFTER   1  ITERATIONS
 ALL LAKES CONVERGED AFTER   1  ITERATIONS
 ALL LAKES CONVERGED AFTER   1  ITERATIONS
 ALL LAKES CONVERGED AFTER   1  ITERATIONS
 ALL LAKES CONVERGED AFTER   1  ITERATIONS
 ALL LAKES CONVERGED AFTER   1  ITERATIONS
 ALL LAKES CONVERGED AFTER   1  ITERATIONS
 ALL LAKES CONVERGED AFTER   1  ITERATIONS
 ALL LAKES CONVERGED AFTER   1  ITERATIONS
 ALL LAKES CONVERGED AFTER   1  ITERATIONS
 ALL LAKES CONVERGED AFTER   1  ITERATIONS
 ALL LAKES CONVERGED AFTER   1  ITERATIONS
 ALL LAKES CONVERGED AFTER   1  ITERATIONS
 ALL LAKES CONVERGED AFTER   1  ITERATIONS
 ALL LAKES CONVERGED AFTER   1  ITERATIONS
 ALL LAKES CONVERGED AFTER   1  ITERATIONS
 ALL LAKES CONVERGED AFTER   1  ITERATIONS
 ALL LAKES CONVERGED AFTER   1  ITERATIONS
 ALL LAKES CONVERGED AFTER   1  ITERATIONS
 ALL LAKES CONVERGED AFTER   1  ITERATIONS
 ALL LAKES CONVERGED AFTER   1  ITERATIONS
 ALL LAKES CONVERGED AFTER   1  ITERATIONS
 ALL LAKES CONVERGED AFTER   1  ITERATIONS
 ALL LAKES CONVERGED AFTER   1  ITERATIONS
 ALL LAKES CONVERGED AFTER   1  ITERATIONS
 ALL LAKES CONVERGED AFTER   1  ITERATIONS
 ALL LAKES CONVERGED AFTER   1  ITERATIONS
 ALL LAKES CONVERGED AFTER   1  ITERATIONS
 ALL LAKES CONVERGED AFTER   1  ITERATIONS
 ALL LAKES CONVERGED AFTER   1  ITERATIONS
 ALL LAKES CONVERGED AFTER   1  ITERATIONS
 ALL LAKES CONVERGED AFTER   1  ITERATIONS
 ALL LAKES CONVERGED AFTER   1  ITERATIONS
 ALL LAKES CONVERGED AFTER   1  ITERATIONS
 ALL LAKES CONVERGED AFTER   1  ITERATIONS
 ALL LAKES CONVERGED AFTER   1  ITERATIONS

   476 ITERATIONS FOR TIME STEP   1 IN STRESS PERIOD    1

 MAXIMUM HEAD CHANGE FOR EACH ITERATION:

[...]
  (  2,  7,  7) (  5, 10,  8) (  3,  8, 10) (  3, 10,  8) (  2,  8, 11)
     0.5186        0.3713        0.4715        0.3680        0.5251    
  (  2,  7,  7) (  5,  9,  9) (  5, 10,  8) (  3,  8, 10) (  3, 10,  8)
     0.3516        0.3513        0.3342        0.4898        0.3374    
  (  2,  7,  7) (  5, 10,  8) (  3,  8, 10) (  3, 10,  8) (  2,  8, 11)
     0.4374        0.3130        0.3973        0.3098        0.4421    
  (  2,  7,  7) (  5,  9,  9) (  5, 10,  8) (  3,  8, 10) (  3, 10,  8)
     0.2956        0.2955        0.2809        0.4116        0.2836    
  (  2,  7,  7) (  5, 10,  8) (  3,  8, 10) (  3, 10,  8) (  2,  8, 11)
     0.3675        0.2629        0.3335        0.2600        0.3710    
  (  2,  7,  7) (  5,  9,  9) (  5, 10,  8) (  3,  8, 10) (  3, 10,  8)
     0.2478        0.2477        0.2353        0.3449        0.2376    
  (  2,  7,  7) (  5, 10,  8) (  3,  8, 10) (  3, 10,  8) (  2,  8, 11)
     0.3078        0.2201        0.2792        0.2175        0.3103    
  (  2,  7,  7) (  5,  9,  9) (  5, 10,  8) (  3,  8, 10) (  3, 10,  8)
     0.2070        0.2070        0.1966        0.2881        0.1985    
  (  2,  7,  7) (  5, 10,  8) (  3,  8, 10) (  3, 10,  8) (  2,  8, 11)
     0.2572        0.1838        0.2330        0.1815        0.2589    
  (  2,  7,  7) (  5,  9,  9) (  5, 10,  8) (  3,  8, 10) (  3, 10,  8)
     0.1726        0.1726        0.1639        0.2402        0.1654    
  (  2,  7,  7) (  5, 10,  8) (  3,  8, 10) (  3, 10,  8) (  2,  8, 11)
     0.2143        0.1531        0.1941        0.1511        0.2156    
  (  2,  7,  7) (  5,  9,  9) (  5, 10,  8) (  3,  8, 10) (  3, 10,  8)
     0.1437        0.1437        0.1364        0.1998        0.1376    
  (  2,  7,  7) (  5, 10,  8) (  3,  8, 10) (  3, 10,  8) (  2,  8, 11)
     0.1783        0.1273        0.1614        0.1256        0.1792    
  (  2,  7,  7) (  5,  9,  9) (  5, 10,  8) (  3,  8, 10) (  3, 10,  8)
     0.1194        0.1194        0.1133        0.1660        0.1143    
  (  2,  7,  7) (  5, 10,  8) (  3,  8, 10) (  3, 10,  8) (  2,  8, 11)
     0.1481        0.1057        0.1340        0.1043        0.1488    
  (  2,  7,  7) (  5,  9,  9) (  5, 10,  8) (  3,  8, 10) (  3, 10,  8)
     0.9903E-01    0.9906E-01    0.9397E-01    0.1377        0.9482E-01
  (  2,  7,  7) (  5, 10,  8) (  3,  8, 10) (  3, 10,  8) (  2,  8, 11)
     0.1228        0.8770E-01    0.1111        0.8644E-01    0.1233    
  (  2,  7,  7) (  5,  9,  9) (  5, 10,  8) (  3,  8, 10) (  3, 10,  8)
     0.8207E-01    0.8210E-01    0.7787E-01    0.1141        0.7857E-01
  (  2,  7,  7) (  5, 10,  8) (  3,  8, 10) (  3, 10,  8) (  2,  8, 11)
     0.1018        0.7266E-01    0.9206E-01    0.7158E-01    0.1021    
  (  2,  7,  7) (  5,  9,  9) (  5, 10,  8) (  3,  8, 10) (  3, 10,  8)
     0.6795E-01    0.6798E-01    0.6448E-01    0.9446E-01    0.6504E-01
  (  2,  7,  7) (  5, 10,  8) (  3,  8, 10) (  3, 10,  8) (  2,  8, 11)
     0.8424E-01    0.6014E-01    0.7620E-01    0.5924E-01    0.8453E-01
  (  2,  7,  7) (  5,  9,  9) (  5, 10,  8) (  3,  8, 10) (  3, 10,  8)
     0.5622E-01    0.5624E-01    0.5333E-01    0.7814E-01    0.5382E-01
  (  2,  7,  7) (  5, 10,  8) (  3,  8, 10) (  3, 10,  8) (  2,  8, 11)
     0.6969E-01    0.4974E-01    0.6302E-01    0.4899E-01    0.6991E-01
  (  2,  7,  7) (  5,  9,  9) (  5, 10,  8) (  3,  8, 10) (  3, 10,  8)
     0.4648E-01    0.4650E-01    0.4409E-01    0.6461E-01    0.4449E-01
  (  2,  7,  7) (  5, 10,  8) (  3,  8, 10) (  3, 10,  8) (  2,  8, 11)
     0.5761E-01    0.4112E-01    0.5209E-01    0.4049E-01    0.5778E-01
  (  2,  7,  7) (  5,  9,  9) (  5, 10,  8) (  3,  8, 10) (  3, 10,  8)
     0.3841E-01    0.3843E-01    0.3643E-01    0.5338E-01    0.3675E-01
  (  2,  7,  7) (  5, 10,  8) (  3,  8, 10) (  3, 10,  8) (  2,  8, 11)
     0.4761E-01    0.3397E-01    0.4304E-01    0.3345E-01    0.4773E-01
  (  2,  7,  7) (  5,  9,  9) (  5, 10,  8) (  3,  8, 10) (  3, 10,  8)
     0.3172E-01    0.3175E-01    0.3010E-01    0.4409E-01    0.3035E-01
  (  2,  7,  7) (  5, 10,  8) (  3,  8, 10) (  3, 10,  8) (  2,  8, 11)
     0.3931E-01    0.2806E-01    0.3554E-01    0.2762E-01    0.3942E-01
  (  2,  7,  7) (  5,  9,  9) (  5, 10,  8) (  3,  8, 10) (  3, 10,  8)
     0.2619E-01    0.2622E-01    0.2485E-01    0.3640E-01    0.2506E-01
  (  2,  7,  7) (  5, 10,  8) (  3,  8, 10) (  3, 10,  8) (  2,  8, 11)
     0.3246E-01    0.2317E-01    0.2934E-01    0.2280E-01    0.3254E-01
  (  2,  7,  7) (  5,  9,  9) (  5, 10,  8) (  3,  8, 10) (  3, 10,  8)
     0.2162E-01    0.2163E-01    0.2052E-01    0.3005E-01    0.2069E-01
  (  2,  7,  7) (  5, 10,  8) (  3,  8, 10) (  3, 10,  8) (  2,  8, 11)
     0.2680E-01    0.1912E-01    0.2422E-01    0.1882E-01    0.2686E-01
  (  2,  7,  7) (  5,  9,  9) (  5, 10,  8) (  3,  8, 10) (  3, 10,  8)
     0.1785E-01    0.1786E-01    0.1693E-01    0.2480E-01    0.1708E-01
  (  2,  7,  7) (  5, 10,  8) (  3,  8, 10) (  3, 10,  8) (  2,  8, 11)
     0.2211E-01    0.1578E-01    0.1998E-01    0.1553E-01    0.2216E-01
  (  2,  7,  7) (  5,  9,  9) (  5, 10,  8) (  3,  8, 10) (  3, 10,  8)
     0.1472E-01    0.1474E-01    0.1397E-01    0.2046E-01    0.1408E-01
  (  2,  7,  7) (  5, 10,  8) (  3,  8, 10) (  3, 10,  8) (  2,  8, 11)
     0.1824E-01    0.1302E-01    0.1649E-01    0.1282E-01    0.1829E-01
  (  2,  7,  7) (  5,  9,  9) (  5, 10,  8) (  3,  8, 10) (  3, 10,  8)
     0.1215E-01    0.1216E-01    0.1152E-01    0.1687E-01    0.1162E-01
  (  2,  7,  7) (  5, 10,  8) (  3,  8, 10) (  3, 10,  8) (  2,  8, 11)
     0.1505E-01    0.1073E-01    0.1360E-01    0.1057E-01    0.1508E-01
  (  2,  7,  7) (  5,  9,  9) (  5, 10,  8) (  3,  8, 10) (  3, 10,  8)
     0.1002E-01    0.1003E-01    0.9500E-02    0.1392E-01    0.9590E-02
  (  2,  7,  7) (  5, 10,  8) (  3,  8, 10) (  3, 10,  8) (  2,  8, 11)
     0.1242E-01    0.8855E-02    0.1122E-01    0.8713E-02    0.1243E-01
  (  2,  7,  7) (  5,  9,  9) (  5, 10,  8) (  3,  8, 10) (  3, 10,  8)
     0.8258E-02    0.8272E-02    0.7842E-02    0.1148E-01    0.7907E-02
  (  2,  7,  7) (  5, 10,  8) (  3,  8, 10) (  3, 10,  8) (  2,  8, 11)
     0.1023E-01    0.7304E-02    0.9248E-02    0.7190E-02    0.1026E-01
  (  2,  7,  7) (  5,  9,  9) (  5, 10,  8) (  3,  8, 10) (  3, 10,  8)
     0.6810E-02    0.6818E-02    0.6459E-02    0.9461E-02    0.6513E-02
  (  2,  7,  7) (  5, 10,  8) (  3,  8, 10) (  3, 10,  8) (  2,  8, 11)
     0.8438E-02    0.6020E-02    0.7635E-02    0.5929E-02    0.8459E-02
  (  2,  7,  7) (  5,  9,  9) (  5, 10,  8) (  3,  8, 10) (  3, 10,  8)
     0.5617E-02    0.5620E-02    0.5330E-02    0.7813E-02    0.5378E-02
  (  2,  7,  7) (  5, 10,  8) (  3,  8, 10) (  3, 10,  8) (  2,  8, 11)
     0.6964E-02    0.4969E-02    0.6292E-02    0.4890E-02    0.6981E-02
  (  2,  7,  7) (  5,  9,  9) (  5, 10,  8) (  3,  8, 10) (  3, 10,  8)
     0.4636E-02    0.4641E-02    0.4394E-02    0.6441E-02    0.4432E-02
  (  2,  7,  7) (  5, 10,  8) (  3,  8, 10) (  3, 10,  8) (  2,  8, 11)
     0.5735E-02    0.4088E-02    0.5183E-02    0.4033E-02    0.5752E-02
  (  2,  7,  7) (  5,  9,  9) (  5, 10,  8) (  3,  8, 10) (  3, 10,  8)
     0.3819E-02    0.3820E-02    0.3621E-02    0.5307E-02    0.3655E-02
  (  2,  7,  7) (  5, 10,  8) (  3,  8, 10) (  3, 10,  8) (  2,  8, 11)
     0.4734E-02    0.3376E-02    0.4276E-02    0.3327E-02    0.4744E-02
  (  2,  7,  7) (  5,  9,  9) (  5, 10,  8) (  3,  8, 10) (  3, 10,  8)
     0.3148E-02    0.3153E-02    0.2990E-02    0.4383E-02    0.3008E-02
  (  2,  7,  7) (  5, 10,  8) (  3,  8, 10) (  3, 10,  8) (  2,  8, 11)
     0.3903E-02    0.2782E-02    0.3529E-02    0.2743E-02    0.3915E-02
  (  2,  7,  7) (  5,  9,  9) (  5, 10,  8) (  3,  8, 10) (  3, 10,  8)
     0.2595E-02    0.2598E-02    0.2461E-02    0.3611E-02    0.2490E-02
  (  2,  7,  7) (  5, 10,  8) (  3,  8, 10) (  3, 10,  8) (  2,  8, 11)
     0.3222E-02    0.2294E-02    0.2908E-02    0.2260E-02    0.3226E-02
  (  2,  7,  7) (  5,  9,  9) (  5, 10,  8) (  2,  8, 11) (  3, 10,  8)
     0.2137E-02    0.2142E-02    0.2024E-02    0.2974E-02    0.2042E-02
  (  2,  7,  7) (  5, 10,  8) (  3,  8, 10) (  3, 10,  8) (  2,  8, 11)
     0.2645E-02    0.1890E-02    0.2395E-02    0.1865E-02    0.2657E-02
  (  2,  7,  7) (  5,  9,  9) (  5, 10,  8) (  3,  8, 10) (  3, 10,  8)
     0.1768E-02    0.1766E-02    0.1668E-02    0.2449E-02    0.1693E-02
  (  2,  7,  7) (  5, 10,  8) (  3,  8, 10) (  3, 10,  8) (  2,  8, 11)
     0.2183E-02    0.1560E-02    0.1972E-02    0.1532E-02    0.2187E-02
  (  2,  7,  7) (  5,  9,  9) (  5, 10,  8) (  3,  8, 10) (  3, 10,  8)
     0.1457E-02    0.1455E-02    0.1374E-02    0.2021E-02    0.1385E-02
  (  2,  7,  7) (  5, 10,  8) (  3,  8, 10) (  4, 10,  8) (  3,  8, 10)
     0.1804E-02    0.1285E-02    0.1623E-02    0.1264E-02    0.1808E-02
  (  2,  7,  7) (  5,  9,  9) (  5, 10,  8) (  2,  8, 11) (  3, 10,  8)
     0.1196E-02    0.1199E-02    0.1139E-02    0.1667E-02    0.1145E-02
  (  2,  7,  7) (  5, 10,  8) (  3,  8, 10) (  3, 10,  8) (  2,  8, 11)
     0.1484E-02    0.1061E-02    0.1347E-02    0.1049E-02    0.1488E-02
  (  2,  7,  7) (  5,  9,  9) (  5, 10,  8) (  3,  8, 10) (  3, 10,  8)
     0.9918E-03    0.9886E-03    0.9358E-03    0.1372E-02    0.9461E-03
  (  2,  7,  7) (  5, 10,  8) (  3,  8, 10) (  3, 10,  8) (  2,  8, 11)
     0.1228E-02    0.8712E-03    0.1106E-02    0.8571E-03    0.1229E-02
  (  2,  7,  7) (  5,  9,  9) (  5, 10,  8) (  3,  8, 10) (  3, 10,  8)
     0.8149E-03    0.8109E-03    0.7730E-03    0.1134E-02    0.7825E-03
  (  2,  7,  7) (  5, 10,  8) (  3,  8, 10) (  4, 10,  8) (  3,  8, 10)
     0.1010E-02    0.7218E-03    0.9108E-03    0.7068E-03    0.1009E-02
  (  2,  7,  7) (  5,  9,  9) (  5, 10,  8) (  2,  8, 11) (  3, 10,  8)
     0.6704E-03    0.6671E-03    0.6402E-03    0.9331E-03    0.6472E-03
  (  2,  7,  7) (  5, 10,  8) (  3,  8, 10) (  3, 10,  8) (  2,  8, 11)
     0.8312E-03    0.5944E-03    0.7460E-03    0.5872E-03    0.8390E-03
  (  2,  7,  7) (  5,  9,  9) (  5, 10,  8) (  2,  8, 11) (  3, 10,  8)
     0.5543E-03    0.5551E-03    0.5295E-03    0.7715E-03    0.5375E-03
  (  2,  7,  7) (  5, 10,  8) (  2,  9, 11) (  3, 10,  8) (  2,  8, 11)
     0.6900E-03    0.4887E-03    0.6208E-03    0.4838E-03    0.6892E-03
  (  2,  7,  7) (  5,  9,  9) (  5, 10,  8) (  3,  8, 10) (  3, 10,  8)
     0.4561E-03    0.4554E-03    0.4370E-03    0.6376E-03    0.4381E-03
  (  2,  7,  7) (  5, 10,  8) (  3,  8, 10) (  3, 10,  8) (  2,  8, 11)
     0.5678E-03    0.4037E-03    0.5040E-03    0.3931E-03    0.5690E-03
  (  2,  7,  7) (  5,  9,  9) (  5, 10,  8) (  3,  8, 10) (  3, 10,  8)
     0.3706E-03    0.3768E-03    0.3596E-03    0.5244E-03    0.3612E-03
  (  2,  7,  7) (  5, 10,  8) (  2,  9, 11) (  5, 10,  8) (  3,  8, 10)
     0.4629E-03    0.3291E-03    0.4221E-03    0.3226E-03    0.4591E-03
  (  2,  7,  7) (  5,  9,  9) (  5, 10,  8) (  3,  8, 10) (  3, 10,  8)
     0.3111E-03    0.3112E-03    0.2948E-03    0.4288E-03    0.3009E-03
  (  2,  7,  7) (  5, 10,  8) (  3,  8, 10) (  5, 10,  8) (  3,  8, 10)
     0.3862E-03    0.2760E-03    0.3492E-03    0.2721E-03    0.3892E-03
  (  2,  7,  7) (  5,  9,  9) (  5, 10,  8) (  3,  8, 10) (  3, 10,  8)
     0.2536E-03    0.2553E-03    0.2440E-03    0.3519E-03    0.2408E-03
  (  2,  7,  7) (  5, 10,  8) (  3,  8, 10) (  3, 10,  8) (  3,  8, 10)
     0.3123E-03    0.2229E-03    0.2864E-03    0.2218E-03    0.3194E-03
  (  2,  7,  7) (  5,  9,  9) (  5, 10,  8) (  3,  8, 10) (  3, 10,  8)
     0.2138E-03    0.2122E-03    0.2033E-03    0.2949E-03    0.2007E-03
  (  2,  7,  7) (  5,  9,  7) (  3,  8, 10) (  3, 10,  8) (  3,  8, 10)
     0.2647E-03    0.1814E-03    0.2286E-03    0.1814E-03    0.2595E-03
  (  2,  7,  7) (  5,  9,  9) (  5, 10,  8) (  3,  8, 10) (  3, 10,  8)
     0.1752E-03    0.1772E-03    0.1697E-03    0.2388E-03    0.1706E-03
  (  2,  7,  7) (  5, 10,  8) (  2,  9, 11) (  5, 10,  8) (  3,  8, 10)
     0.2166E-03    0.1491E-03    0.1942E-03    0.1512E-03    0.2095E-03
  (  2,  7,  7) (  5,  9,  9) (  5, 10,  8) (  3,  8, 10) (  3, 10,  8)
     0.1458E-03    0.1449E-03    0.1323E-03    0.2005E-03    0.1405E-03
  (  2,  7,  7) (  5, 10,  8) (  3,  8, 10) (  3, 10,  8) (  3,  8, 10)
     0.1794E-03    0.1274E-03    0.1547E-03    0.1292E-03    0.1812E-03
  (  2,  7,  7) (  5,  9,  9) (  5, 10,  8) (  2,  9, 11) (  2, 11,  9)
     0.1159E-03    0.1214E-03    0.1119E-03    0.1618E-03    0.1104E-03
  (  2,  7,  7) (  5, 10,  8) (  3,  8, 10) (  3, 10,  8) (  3,  8, 10)
     0.1421E-03    0.1057E-03    0.1354E-03    0.1093E-03    0.1526E-03
  (  2,  7,  7) (  4,  9,  9) (  5, 10,  8) (  2,  9, 11) (  2, 11,  9)
     0.9636E-04
  (  2,  7,  7)


 HEAD/DRAWDOWN PRINTOUT FLAG = 1     TOTAL BUDGET PRINTOUT FLAG = 1
 CELL-BY-CELL FLOW TERM FLAG = 1

 OUTPUT FLAGS FOR EACH LAYER:
          HEAD    DRAWDOWN  HEAD  DRAWDOWN
 LAYER  PRINTOUT  PRINTOUT  SAVE    SAVE
 -----------------------------------------
    1       0         0       0       0
    2       0         0       0       0
    3       0         0       0       0
    4       0         0       0       0
    5       1         0       0       0


     0  LAKE CELLS ARE DRY.

 PERIOD     1     TIME STEP     1     TIME STEP LENGTH  1.0000E+00
 PERIOD TIME  1.0000E+00     TOTAL SIMULATION TIME  1.0000E+00


                 HYDROLOGIC BUDGET SUMMARIES FOR SIMULATED LAKES
     (ALL FLUID FLUXES ARE VOLUMES ADDED TO THE LAKE DURING PRESENT TIME STEP)
     ----------------------------------------------------------------------------------------
 LAKE    STAGE       PRECIP         EVAP         RUNOFF
   1  1.482843E+02  7.250000E+04  6.437500E+04  0.000000E+00

            GROUND WATER            SURFACE WATER
 LAKE    INFLOW     OUTFLOW      INFLOW     OUTFLOW
   1  1.6887E+04  2.4955E+04  0.0000E+00  0.0000E+00

         WATER    CONNECTED LAKE   UPDATED     TIME-STEP          STAGE CHANGE
 LAKE     USE         INFLUX        VOLUME    SURFACE AREA   TIME STEP  CUMULATIVE
   1   0.0000E+00   0.0000E+00   2.8053E+08    6.2500E+06   3.8284E+01  3.8284E+01
 --------------------------------------------------------------------------------



            CUMULATIVE HYDROLOGIC BUDGET SUMMARIES FOR SIMULATED LAKES
     (ALL FLUID FLUXES ARE SUMS OF VOLUMES ADDED TO THE LAKE SINCE INITIAL TIME)
     ---------------------------------------------------------------------------
 LAKE       PRECIP       EVAP       RUNOFF
   1     7.2500E+04  6.4375E+04  0.0000E+00

            GROUND WATER            SURFACE WATER
 LAKE    INFLOW     OUTFLOW      INFLOW     OUTFLOW
   1  1.6887E+04  2.4955E+04  0.0000E+00  0.0000E+00

         WATER    CONNECTED LAKE
 LAKE     USE         INFLUX
   1   0.0000E+00   0.0000E+00
 --------------------------------------------------------------------------------

1
              HEAD IN LAYER   5 AT END OF TIME STEP   1 IN STRESS PERIOD    1
  ---------------------------------------------------------------------------

          1      2      3      4      5      6      7      8      9     10
 .........................................................................
   1   160.0  158.9  157.3  155.8  154.2  152.7  151.5  150.8  150.0  149.2
   2   160.0  158.6  156.7  155.1  153.4  151.9  150.7  149.9  149.1  148.4
   3   160.0  158.4  156.3  154.5  152.8  151.1  150.0  149.2  148.4  147.6
   4   160.0  158.3  156.1  154.2  152.4  150.8  149.6  148.8  148.1  147.3
   5   160.0  158.2  155.9  154.0  152.2  150.5  149.4  148.6  147.9  147.2
   6   160.0  158.2  155.9  153.9  152.1  150.3  149.1  148.5  148.0  147.5
   7   160.0  158.2  155.9  153.8  152.0  150.1  148.4  148.3  148.3  148.3
   8   160.0  158.2  155.8  153.8  151.9  150.0  148.3  148.3  148.3  148.3
   9   160.0  158.2  155.8  153.8  151.9  150.0  148.3  148.3  148.3  148.3
  10   160.0  158.2  155.8  153.8  151.9  150.0  148.3  148.3  148.3  148.3
  11   160.0  158.2  155.9  153.8  152.0  150.1  148.4  148.3  148.3  148.3
  12   160.0  158.2  155.9  153.9  152.1  150.3  149.1  148.5  148.0  147.5
  13   160.0  158.2  155.9  154.0  152.2  150.5  149.4  148.6  147.9  147.2
  14   160.0  158.3  156.1  154.2  152.4  150.8  149.6  148.8  148.1  147.3
  15   160.0  158.4  156.3  154.5  152.8  151.1  150.0  149.2  148.4  147.6
  16   160.0  158.6  156.7  155.1  153.4  151.9  150.7  149.9  149.1  148.4
  17   160.0  158.9  157.3  155.8  154.2  152.7  151.5  150.8  150.0  149.2
1
              HEAD IN LAYER   5 AT END OF TIME STEP   1 IN STRESS PERIOD    1
  ---------------------------------------------------------------------------

         11     12     13     14     15     16     17
 ....................................................
   1   148.5  147.3  145.8  144.2  142.7  141.1  140.0
   2   147.6  146.4  144.9  143.4  141.9  140.6  140.0
   3   146.9  145.7  144.2  142.7  141.4  140.3  140.0
   4   146.5  145.4  143.8  142.4  141.1  140.2  140.0
   5   146.5  145.3  143.7  142.3  141.0  140.1  140.0
   6   146.8  145.5  143.8  142.2  141.0  140.1  140.0
   7   148.2  145.9  143.9  142.3  141.0  140.1  140.0
   8   148.2  146.0  143.9  142.3  141.0  140.1  140.0
   9   148.2  146.0  143.9  142.3  141.0  140.1  140.0
  10   148.2  146.0  143.9  142.3  141.0  140.1  140.0
  11   148.2  145.9  143.9  142.3  141.0  140.1  140.0
  12   146.8  145.5  143.8  142.2  141.0  140.1  140.0
  13   146.5  145.3  143.7  142.3  141.0  140.1  140.0
  14   146.5  145.4  143.8  142.4  141.1  140.2  140.0
  15   146.9  145.7  144.2  142.7  141.4  140.3  140.0
  16   147.6  146.4  144.9  143.4  141.9  140.6  140.0
  17   148.5  147.3  145.8  144.2  142.7  141.1  140.0
1
  VOLUMETRIC BUDGET FOR ENTIRE MODEL AT END OF TIME STEP  1 IN STRESS PERIOD   1
  ------------------------------------------------------------------------------

     CUMULATIVE VOLUMES      L**3       RATES FOR THIS TIME STEP      L**3/T
     ------------------                 ------------------------

           IN:                                      IN:
           ---                                      ---
             STORAGE =           0.0000               STORAGE =           0.0000
       CONSTANT HEAD =      166882.5156         CONSTANT HEAD =      166882.5156
                  ET =           0.0000                    ET =           0.0000
            RECHARGE =     1740000.0000              RECHARGE =     1740000.0000
     SPECIFIED FLOWS =           0.0000       SPECIFIED FLOWS =           0.0000
       LAKE  SEEPAGE =       24955.4473         LAKE  SEEPAGE =       24955.4473

            TOTAL IN =     1931838.0000              TOTAL IN =     1931838.0000

          OUT:                                     OUT:
          ----                                     ----
             STORAGE =           0.0000               STORAGE =           0.0000
       CONSTANT HEAD =        9490.5381         CONSTANT HEAD =        9490.5381
                  ET =     1905453.7500                    ET =     1905453.7500
            RECHARGE =           0.0000              RECHARGE =           0.0000
     SPECIFIED FLOWS =           0.0000       SPECIFIED FLOWS =           0.0000
       LAKE  SEEPAGE =       16886.5684         LAKE  SEEPAGE =       16886.5684

           TOTAL OUT =     1931830.8750             TOTAL OUT =     1931830.8750

            IN - OUT =           7.1250              IN - OUT =           7.1250

 PERCENT DISCREPANCY =           0.00     PERCENT DISCREPANCY =           0.00






          TIME SUMMARY AT END OF TIME STEP   1 IN STRESS PERIOD    1
                    SECONDS     MINUTES      HOURS       DAYS        YEARS
                    -----------------------------------------------------------
   TIME STEP LENGTH  86400.      1440.0      24.000      1.0000     2.73785E-03
 STRESS PERIOD TIME  86400.      1440.0      24.000      1.0000     2.73785E-03
         TOTAL TIME  86400.      1440.0      24.000      1.0000     2.73785E-03
1

 Run end date and time (yyyy/mm/dd hh:mm:ss): 2007/10/25 12:54:53
 Elapsed run time:  0.422 Seconds

