                                  MODFLOW-2005     
      U.S. GEOLOGICAL SURVEY MODULAR FINITE-DIFFERENCE GROUND-WATER FLOW MODEL
                             VERSION 1.3.01 8/2/2007

 LIST FILE: tr2k_s3.lst
                         UNIT    2

 OPENING tr2k_s3.ba6
 FILE TYPE:BAS6   UNIT    1   STATUS:OLD    
 FORMAT:FORMATTED              ACCESS:SEQUENTIAL          

 OPENING tr2k_s3.dis
 FILE TYPE:DIS   UNIT   10   STATUS:OLD    
 FORMAT:FORMATTED              ACCESS:SEQUENTIAL          

 OPENING tr2k_s3.bc6
 FILE TYPE:BCF6   UNIT   11   STATUS:OLD    
 FORMAT:FORMATTED              ACCESS:SEQUENTIAL          

 OPENING tr2k_s3.wel
 FILE TYPE:WEL   UNIT   12   STATUS:OLD    
 FORMAT:FORMATTED              ACCESS:SEQUENTIAL          

 OPENING tr2k_s3.sip
 FILE TYPE:SIP   UNIT   13   STATUS:OLD    
 FORMAT:FORMATTED              ACCESS:SEQUENTIAL          

 OPENING tr2k_s3.oc
 FILE TYPE:OC   UNIT   15   STATUS:OLD    
 FORMAT:FORMATTED              ACCESS:SEQUENTIAL          

 OPENING tr2k_s3.sub
 FILE TYPE:SUB   UNIT   19   STATUS:OLD    
 FORMAT:FORMATTED              ACCESS:SEQUENTIAL          
#                                                                                                                                                                                                                                                                                                           
# Binary output files                                                                                                                                                                                                                                                                                       

 OPENING tr2k_s3.hed
 FILE TYPE:DATA(BINARY)   UNIT   21   STATUS:REPLACE
 FORMAT:BINARY                 ACCESS:SEQUENTIAL          

 OPENING tr2k_s3.ddn
 FILE TYPE:DATA(BINARY)   UNIT   22   STATUS:REPLACE
 FORMAT:BINARY                 ACCESS:SEQUENTIAL          

 OPENING tr2k_s3.sbs
 FILE TYPE:DATA(BINARY)   UNIT   41   STATUS:REPLACE
 FORMAT:BINARY                 ACCESS:SEQUENTIAL          

 OPENING tr2k_s3.cmp
 FILE TYPE:DATA(BINARY)   UNIT   42   STATUS:REPLACE
 FORMAT:BINARY                 ACCESS:SEQUENTIAL          

 BAS -- BASIC PACKAGE, VERSION 7, 5/2/2005 INPUT READ FROM UNIT    1

 DISCRETIZATION INPUT DATA READ FROM UNIT   10
    3 LAYERS        10 ROWS        10 COLUMNS
   31 STRESS PERIOD(S) IN SIMULATION
 MODEL TIME UNIT IS DAYS
 MODEL LENGTH UNIT IS UNDEFINED
  Confining bed flag for each layer:
   0   0   0

                     DELR =   1000.00    

                     DELC =   2000.00    

 TOP ELEVATION OF LAYER 1 =   0.00000    

   MODEL LAYER BOTTOM EL. =  -100.000     FOR LAYER   1

   MODEL LAYER BOTTOM EL. =  -150.000     FOR LAYER   2

   MODEL LAYER BOTTOM EL. =  -250.000     FOR LAYER   3


 STRESS PERIOD     LENGTH       TIME STEPS     MULTIPLIER FOR DELT    SS FLAG
 ----------------------------------------------------------------------------
        1         1.000000          1                    1.000         SS
        2         365.3000          6                    1.300         TR
        3         365.3000          6                    1.300         TR
        4         365.3000          6                    1.300         TR
        5         365.3000          6                    1.300         TR
        6         365.3000          6                    1.300         TR
        7         365.3000          6                    1.300         TR
        8         365.3000          6                    1.300         TR
        9         365.3000          6                    1.300         TR
       10         365.3000          6                    1.300         TR
       11         365.3000          6                    1.300         TR
       12         365.3000          6                    1.300         TR
       13         365.3000          6                    1.300         TR
       14         365.3000          6                    1.300         TR
       15         365.3000          6                    1.300         TR
       16         365.3000          6                    1.300         TR
       17         365.3000          6                    1.300         TR
       18         365.3000          6                    1.300         TR
       19         365.3000          6                    1.300         TR
       20         365.3000          6                    1.300         TR
       21         365.3000          6                    1.300         TR
       22         365.3000          6                    1.300         TR
       23         365.3000          6                    1.300         TR
       24         365.3000          6                    1.300         TR
       25         365.3000          6                    1.300         TR
       26         365.3000          6                    1.300         TR
       27         365.3000          6                    1.300         TR
       28         365.3000          6                    1.300         TR
       29         365.3000          6                    1.300         TR
       30         365.3000          6                    1.300         TR
       31         365.3000          6                    1.300         TR

 COMBINED STEADY-STATE AND TRANSIENT SIMULATION



 
 #Sample Problem 3                                                               
 #SUB1 documentation                                                             



                     BOUNDARY ARRAY FOR LAYER   1
 READING ON UNIT    1 WITH FORMAT: (20I4)              

        1   2   3   4   5   6   7   8   9  10
 ............................................
   1    3   3   1   1   1   1   1   1   3   3
   2    3   2   2   2   2   2   2   2   2   3
   3    3   2   2   2   2   5   5   2   2   3
   4    3   2   2   2   2   5   5   2   2   3
   5    1   2   2   2   2   2   2   2   2   1
   6    1   2   2   2   2   2   2   2   2   1
   7    1   2   2   2   2   2   2   2   2   1
   8    1   2   2   2   2   2   2   2   2   1
   9    1   2   2   2   2   2   2   2   2   1
  10    1   1   1  -4  -4  -4  -4   1   1   1

           BOUNDARY ARRAY =              1 FOR LAYER   2

           BOUNDARY ARRAY =              1 FOR LAYER   3

 AQUIFER HEAD WILL BE SET TO  999.00     AT ALL NO-FLOW NODES (IBOUND=0).

             INITIAL HEAD =   0.00000     FOR LAYER   1

             INITIAL HEAD =   0.00000     FOR LAYER   2

             INITIAL HEAD =   0.00000     FOR LAYER   3

 OUTPUT CONTROL IS SPECIFIED ONLY AT TIME STEPS FOR WHICH OUTPUT IS DESIRED
 IBOUND WILL BE SAVED ON UNIT   50
 HEAD PRINT FORMAT CODE IS   4    DRAWDOWN PRINT FORMAT CODE IS   5
 HEADS WILL BE SAVED ON UNIT   21    DRAWDOWNS WILL BE SAVED ON UNIT   22

 BCF -- BLOCK-CENTERED FLOW PACKAGE, VERSION 7, 5/2/2005
         INPUT READ FROM UNIT 11
 TRANSIENT SIMULATION
 HEAD AT CELLS THAT CONVERT TO DRY=   0.0000    
 WETTING CAPABILITY IS NOT ACTIVE
      LAYER  LAYER-TYPE CODE     INTERBLOCK T
      --------------------------------------------
         1            1          0 -- HARMONIC    
         2            0          0 -- HARMONIC    
         3            0          0 -- HARMONIC    

 COLUMN TO ROW ANISOTROPY =   1.00000    

     PRIMARY STORAGE COEF =  0.100000     FOR LAYER   1

    HYD. COND. ALONG ROWS =   20.0000     FOR LAYER   1

 VERT HYD COND /THICKNESS =  3.000000E-06 FOR LAYER   1

     PRIMARY STORAGE COEF =  6.560000E-05 FOR LAYER   2



               TRANSMIS. ALONG ROWS FOR LAYER   2
 READING ON UNIT   11 WITH FORMAT: (10F7.0)            

            1           2           3           4           5           6           7           8           9          10
 ........................................................................................................................
   1    1000.       1000.       1000.       1000.       1000.       1000.       1000.       1000.       1000.       1000.    
   2    1000.      0.5000      0.5000      0.5000      0.5000      0.5000      0.5000      0.5000      0.5000       1000.    
   3    1000.      0.5000      0.5000      0.5000      0.5000      0.5000      0.5000      0.5000      0.5000       1000.    
   4    1000.      0.5000      0.5000      0.5000      0.5000      0.5000      0.5000      0.5000      0.5000       1000.    
   5    1000.      0.5000      0.5000      0.5000      0.5000      0.5000      0.5000      0.5000      0.5000       1000.    
   6    1000.      0.5000      0.5000      0.5000      0.5000      0.5000      0.5000      0.5000      0.5000       1000.    
   7    1000.      0.5000      0.5000      0.5000      0.5000      0.5000      0.5000      0.5000      0.5000       1000.    
   8    1000.      0.5000      0.5000      0.5000      0.5000      0.5000      0.5000      0.5000      0.5000       1000.    
   9    1000.      0.5000      0.5000      0.5000      0.5000      0.5000      0.5000      0.5000      0.5000       1000.    
  10    1000.       1000.       1000.       1000.       1000.       1000.       1000.       1000.       1000.       1000.    

 VERT HYD COND /THICKNESS =  3.000000E-06 FOR LAYER   2

     PRIMARY STORAGE COEF =  2.620000E-04 FOR LAYER   3

     TRANSMIS. ALONG ROWS =   1000.00     FOR LAYER   3

 WEL -- WELL PACKAGE, VERSION 7, 5/2/2005 INPUT READ FROM UNIT   12
 No named parameters
 MAXIMUM OF     14 ACTIVE WELLS AT ONE TIME


     0 Well parameters

SUB7 -- SUBSIDENCE PACKAGE, VERSION 7, 03/31/2006 INPUT READ FROM UNIT 19

         NUMBER OF SYSTEMS OF NO-DELAYED INTERBEDS:  3
              NUMBER OF SYSTEMS OF DELAY INTERBEDS:  2
                          NUMBER OF MATERIAL ZONES:  1
                    NUMBER OF NODES IN EACH STRING: 20
 RESTART INFORMATION WILL NOT BE SAVED FOR DELAY INTERBEDS
 RESTART INFORMATION WILL NOT BE READ FOR DELAY INTERBEDS
 OUTPUT CONTROL RECORDS FOR SUB PACKAGE WILL BE READ EACH TIME STEP.

 MODEL LAYER ASSIGNMENTS FOR EACH OF  3 NO-DELAY SYSTEMS OF INTERBEDS:
    1   2   3

 MODEL LAYER ASSIGNMENTS FOR EACH OF  2 DELAY SYSTEMS OF INTERBEDS:
    1   3

  SYSTEM   1 OF DELAY BEDS:

 NUMBER OF BEDS IN SYSTEM =   7.63500     FOR LAYER   1

  SYSTEM   2 OF DELAY BEDS:

 NUMBER OF BEDS IN SYSTEM =   17.7180     FOR LAYER   3

  SYSTEM   1 OF NO-DELAY BEDS:

    PRECONSOLIDATION HEAD =  -7.00000     FOR LAYER   1

  SYSTEM   1 OF NO-DELAY BEDS:

 ELASTIC INTERBED STORAGE =  2.100000E-04 FOR LAYER   1

  SYSTEM   1 OF NO-DELAY BEDS:

  VIRGIN INTERBED STORAGE =  9.120000E-03 FOR LAYER   1

  SYSTEM   1 OF NO-DELAY BEDS:

      STARTING COMPACTION =   0.00000     FOR LAYER   1

  SYSTEM   2 OF NO-DELAY BEDS:

    PRECONSOLIDATION HEAD =  -7.00000     FOR LAYER   2

  SYSTEM   2 OF NO-DELAY BEDS:

 ELASTIC INTERBED STORAGE =  1.500000E-04 FOR LAYER   2

  SYSTEM   2 OF NO-DELAY BEDS:



            VIRGIN INTERBED STORAGE FOR LAYER   2
 READING ON UNIT   19 WITH FORMAT: (10F7.0)            

            1           2           3           4           5           6           7           8           9          10
 ........................................................................................................................
   1   7.6000E-03  7.6000E-03  7.6000E-03  7.6000E-03  7.6000E-03  7.6000E-03  7.6000E-03  7.6000E-03  7.6000E-03  7.6000E-03
   2   7.6000E-03  1.5000E-02  1.5000E-02  1.5000E-02  1.5000E-02  1.5000E-02  1.5000E-02  1.5000E-02  1.5000E-02  7.6000E-03
   3   7.6000E-03  1.5000E-02  1.5000E-02  1.5000E-02  1.5000E-02  1.5000E-02  1.5000E-02  1.5000E-02  1.5000E-02  7.6000E-03
   4   7.6000E-03  1.5000E-02  1.5000E-02  1.5000E-02  1.5000E-02  1.5000E-02  1.5000E-02  1.5000E-02  1.5000E-02  7.6000E-03
   5   7.6000E-03  1.5000E-02  1.5000E-02  1.5000E-02  1.5000E-02  1.5000E-02  1.5000E-02  1.5000E-02  1.5000E-02  7.6000E-03
   6   7.6000E-03  1.5000E-02  1.5000E-02  1.5000E-02  1.5000E-02  1.5000E-02  1.5000E-02  1.5000E-02  1.5000E-02  7.6000E-03
   7   7.6000E-03  1.5000E-02  1.5000E-02  1.5000E-02  1.5000E-02  1.5000E-02  1.5000E-02  1.5000E-02  1.5000E-02  7.6000E-03
   8   7.6000E-03  1.5000E-02  1.5000E-02  1.5000E-02  1.5000E-02  1.5000E-02  1.5000E-02  1.5000E-02  1.5000E-02  7.6000E-03
   9   7.6000E-03  1.5000E-02  1.5000E-02  1.5000E-02  1.5000E-02  1.5000E-02  1.5000E-02  1.5000E-02  1.5000E-02  7.6000E-03
  10   7.6000E-03  7.6000E-03  7.6000E-03  7.6000E-03  7.6000E-03  7.6000E-03  7.6000E-03  7.6000E-03  7.6000E-03  7.6000E-03

  SYSTEM   2 OF NO-DELAY BEDS:

      STARTING COMPACTION =   0.00000     FOR LAYER   2

  SYSTEM   3 OF NO-DELAY BEDS:

    PRECONSOLIDATION HEAD =  -7.00000     FOR LAYER   3

  SYSTEM   3 OF NO-DELAY BEDS:

 ELASTIC INTERBED STORAGE =  4.200000E-04 FOR LAYER   3

  SYSTEM   3 OF NO-DELAY BEDS:

  VIRGIN INTERBED STORAGE =  1.824000E-02 FOR LAYER   3

  SYSTEM   3 OF NO-DELAY BEDS:

      STARTING COMPACTION =   0.00000     FOR LAYER   3

 MATERIAL PROPERTIES OF INTERBEDS WITH DELAY PROPERTIES

   ZONE        HYDRAULIC           ELASTIC            INELASTIC       
  NUMBER      CONDUCTIVITY     SPECIFIC STORAGE    SPECIFIC STORAGE   
 ---------------------------------------------------------------------
    1        0.10000E-05         0.60000E-05         0.60000E-03

  SYSTEM   1 OF DELAY BEDS:



                DELAY STARTING HEAD FOR LAYER   1
 READING ON UNIT   19 WITH FORMAT: (10F7.0)            

            1           2           3           4           5           6           7           8           9          10
 ........................................................................................................................
   1    22.66       22.31       21.66       21.25       21.05       21.05       21.25       21.66       22.31       22.66    
   2    21.62       21.13       20.71       20.42       20.27       20.27       20.42       20.71       21.13       21.62    
   3    20.11       19.63       19.27       19.03       18.91       18.91       19.03       19.27       19.63       20.11    
   4    18.05       17.62       17.33       17.14       17.05       17.05       17.14       17.33       17.62       18.05    
   5    15.12       15.03       14.93       14.85       14.81       14.81       14.85       14.93       15.03       15.12    
   6    12.47       12.44       12.40       12.37       12.35       12.35       12.37       12.40       12.44       12.47    
   7    9.870       9.845       9.805       9.766       9.742       9.742       9.766       9.805       9.845       9.870    
   8    7.297       7.235       7.133       7.029       6.970       6.970       7.029       7.133       7.235       7.297    
   9    4.891       4.709       4.383       4.017       3.864       3.864       4.017       4.383       4.709       4.891    
  10    3.135       2.680       1.696       0.000       0.000       0.000       0.000       1.696       2.680       3.135    

  SYSTEM   1 OF DELAY BEDS:

    DELAY PRECOLSOL. HEAD =  -7.00000     FOR LAYER   1

  SYSTEM   1 OF DELAY BEDS:

 DELAY INITIAL COMPACTION =   0.00000     FOR LAYER   1

  SYSTEM   1 OF DELAY BEDS:

 DELAY INTERBED THICKNESS =   5.89400     FOR LAYER   1

  SYSTEM   1 OF DELAY BEDS:

    MATERIAL ZONE INDICES =              1 FOR LAYER   1

  SYSTEM   2 OF DELAY BEDS:



                DELAY STARTING HEAD FOR LAYER   3
 READING ON UNIT   19 WITH FORMAT: (10F7.0)            

            1           2           3           4           5           6           7           8           9          10
 ........................................................................................................................
   1    13.29       13.30       13.30       13.30       13.30       13.30       13.30       13.30       13.30       13.29    
   2    13.27       13.27       13.28       13.28       13.28       13.28       13.28       13.28       13.27       13.27    
   3    13.21       13.22       13.22       13.22       13.22       13.22       13.22       13.22       13.22       13.21    
   4    13.13       13.13       13.13       13.14       13.14       13.14       13.14       13.13       13.13       13.13    
   5    13.02       13.03       13.03       13.03       13.03       13.03       13.03       13.03       13.03       13.02    
   6    12.91       12.91       12.91       12.91       12.91       12.91       12.91       12.91       12.91       12.91    
   7    12.80       12.80       12.80       12.80       12.80       12.80       12.80       12.80       12.80       12.80    
   8    12.71       12.70       12.70       12.70       12.70       12.70       12.70       12.70       12.70       12.71    
   9    12.64       12.64       12.63       12.63       12.63       12.63       12.63       12.63       12.64       12.64    
  10    12.61       12.61       12.61       12.61       12.60       12.60       12.61       12.61       12.61       12.61    

  SYSTEM   2 OF DELAY BEDS:

    DELAY PRECOLSOL. HEAD =  -7.00000     FOR LAYER   3

  SYSTEM   2 OF DELAY BEDS:

 DELAY INITIAL COMPACTION =   0.00000     FOR LAYER   3

  SYSTEM   2 OF DELAY BEDS:

 DELAY INTERBED THICKNESS =   5.08000     FOR LAYER   3

  SYSTEM   2 OF DELAY BEDS:

    MATERIAL ZONE INDICES =              1 FOR LAYER   3

             SUBSIDENCE PRINT FORMAT IS NUMBER   0
                 UNIT FOR SAVING SUBSIDENCE IS  41
    COMPACTION BY LAYER PRINT FORMAT IS NUMBER   0
        UNIT FOR SAVING COMPACTION BY LAYER IS  42
   COMPACTION BY SYSTEM PRINT FORMAT IS NUMBER   0
       UNIT FOR SAVING COMPACTION BY SYSTEM IS  42
  VERTICAL DISPLACEMENT PRINT FORMAT IS NUMBER   0
      UNIT FOR SAVING VERTICAL DISPLACEMENT IS  41
 NO-DELAY CRITICAL HEAD PRINT FORMAT IS NUMBER   0
     UNIT FOR SAVING NO-DELAY CRITICAL HEAD IS  43
    DELAY CRITICAL HEAD PRINT FORMAT IS NUMBER   0
        UNIT FOR SAVING DELAY CRITICAL HEAD IS  43

 SIP -- STRONGLY-IMPLICIT PROCEDURE SOLUTION PACKAGE
                    VERSION 7, 5/2/2005 INPUT READ FROM UNIT   13
 MAXIMUM OF 120 ITERATIONS ALLOWED FOR CLOSURE
  5 ITERATION PARAMETERS

          SOLUTION BY THE STRONGLY IMPLICIT PROCEDURE
          -------------------------------------------
 MAXIMUM ITERATIONS ALLOWED FOR CLOSURE =      120
                 ACCELERATION PARAMETER =     1.0000    
      HEAD CHANGE CRITERION FOR CLOSURE =    0.10000E-04
      SIP HEAD CHANGE PRINTOUT INTERVAL =        1

     CALCULATE ITERATION PARAMETERS FROM MODEL CALCULATED WSEED
1
                            STRESS PERIOD NO.    1, LENGTH =   1.000000    
                            -----------------------------------------------

                              NUMBER OF TIME STEPS =     1

                               MULTIPLIER FOR DELT =     1.000

                            INITIAL TIME STEP SIZE =   1.000000    

 WELL NO.  LAYER   ROW   COL   STRESS RATE         
 --------------------------------------------------
      1      1      1      1       3000.    
      2      1      1      2       3000.    
      3      1      1      9       3000.    
      4      1      1     10       3000.    
      5      1      2      1       3000.    
      6      1      2     10       3000.    
      7      1      3      1       3000.    
      8      1      3     10       3000.    
      9      1      4      1       3000.    
     10      1      4     10       3000.    

     10 WELLS
 
 SOLVING FOR HEAD 

 AVERAGE SEED = 0.00104234
 MINIMUM SEED = 0.00001229

     5 ITERATION PARAMETERS CALCULATED FROM AVERAGE SEED:

  0.000000E+00 0.820319E+00 0.967715E+00 0.994199E+00 0.998958E+00

    56 ITERATIONS FOR TIME STEP   1 IN STRESS PERIOD    1

 MAXIMUM HEAD CHANGE FOR EACH ITERATION:

    HEAD CHANGE   HEAD CHANGE   HEAD CHANGE   HEAD CHANGE   HEAD CHANGE
  LAYER,ROW,COL LAYER,ROW,COL LAYER,ROW,COL LAYER,ROW,COL LAYER,ROW,COL
 ----------------------------------------------------------------------
      2.671         2.508         5.470         11.54         8.275    
  (  1,  1, 10) (  1,  1, 10) (  1,  1,  1) (  1,  1, 10) (  3,  1,  1)
      2.524         1.287       -0.9950        -2.001        -1.404    
  (  2,  2,  9) (  2, 10,  2) (  1,  7,  3) (  1,  1,  1) (  1,  1,  1)
     0.6811        0.3993        0.2702        0.7622        0.9893    
  (  2,  6,  1) (  2,  1,  2) (  1,  1,  1) (  1,  1, 10) (  3,  1,  1)
    -0.1359        0.9522E-01   -0.7821E-01   -0.1634       -0.1033    
  (  2,  9,  7) (  2, 10,  2) (  1,  7,  3) (  1,  1,  1) (  1,  1,  1)
     0.5098E-01    0.3160E-01    0.2107E-01    0.5952E-01    0.9494E-01
  (  2,  9,  6) (  2,  1,  2) (  1,  1,  1) (  1,  1, 10) (  3,  1,  1)
    -0.1183E-01    0.7216E-02   -0.6377E-02   -0.1338E-01   -0.7857E-02
  (  2,  9,  7) (  2, 10,  2) (  1,  7,  3) (  1,  1,  1) (  1,  1,  1)
     0.4081E-02    0.2552E-02    0.1665E-02    0.4682E-02    0.8297E-02
  (  2,  9,  6) (  2,  1,  2) (  1,  1,  1) (  1,  1, 10) (  3,  1,  1)
    -0.9887E-03    0.5632E-03   -0.5117E-03   -0.1076E-02   -0.6005E-03
  (  2,  9,  7) (  2, 10,  2) (  1,  7,  3) (  1,  1,  1) (  1,  1,  1)
     0.3225E-03    0.2046E-03    0.1309E-03    0.3672E-03    0.6956E-03
  (  2,  9,  6) (  2,  1,  2) (  1,  1,  1) (  1,  1, 10) (  3,  1,  1)
    -0.8064E-04    0.4409E-04   -0.4084E-04   -0.8565E-04    0.4994E-04
  (  2,  9,  7) (  2, 10,  2) (  1,  7,  3) (  1,  1,  1) (  3,  5,  1)
     0.2573E-04    0.1633E-04    0.1038E-04    0.2918E-04    0.5733E-04
  (  2,  9,  6) (  2,  1,  2) (  1,  1,  1) (  1,  1, 10) (  3,  2,  1)
    -0.6676E-05
  (  2,  9,  6)


 OUTPUT CONTROL FOR STRESS PERIOD    1   TIME STEP   1
    PRINT BUDGET
    PRINT HEAD FOR ALL LAYERS
    SAVE HEAD FOR ALL LAYERS
    SAVE DRAWDOWN FOR ALL LAYERS
1
              HEAD IN LAYER   1 AT END OF TIME STEP   1 IN STRESS PERIOD    1
  ---------------------------------------------------------------------------

           1       2       3       4       5       6       7       8       9      10
 ...................................................................................
   1    22.66   22.31   21.66   21.25   21.05   21.05   21.25   21.66   22.31   22.66
   2    21.62   21.13   20.71   20.42   20.27   20.27   20.42   20.71   21.13   21.62
   3    20.11   19.63   19.27   19.03   18.91   18.91   19.03   19.27   19.63   20.11
   4    18.05   17.62   17.33   17.14   17.05   17.05   17.14   17.33   17.62   18.05
   5    15.12   15.03   14.93   14.85   14.81   14.81   14.85   14.93   15.03   15.12
   6    12.47   12.44   12.40   12.37   12.35   12.35   12.37   12.40   12.44   12.47
   7     9.87    9.84    9.81    9.77    9.74    9.74    9.77    9.81    9.84    9.87
   8     7.30    7.24    7.13    7.03    6.97    6.97    7.03    7.13    7.24    7.30
   9     4.89    4.71    4.38    4.02    3.86    3.86    4.02    4.38    4.71    4.89
  10     3.13    2.68    1.70    0.00    0.00    0.00    0.00    1.70    2.68    3.13
1
              HEAD IN LAYER   2 AT END OF TIME STEP   1 IN STRESS PERIOD    1
  ---------------------------------------------------------------------------

           1       2       3       4       5       6       7       8       9      10
 ...................................................................................
   1    14.85   14.91   14.96   14.99   15.00   15.00   14.99   14.96   14.91   14.85
   2    14.53   16.75   16.88   16.77   16.70   16.70   16.77   16.88   16.75   14.53
   3    14.14   16.10   16.22   16.12   16.06   16.06   16.12   16.22   16.10   14.14
   4    13.67   15.13   15.21   15.14   15.09   15.09   15.14   15.21   15.13   13.67
   5    13.15   13.91   13.97   13.94   13.92   13.92   13.94   13.97   13.91   13.15
   6    12.61   12.67   12.66   12.64   12.63   12.63   12.64   12.66   12.67   12.61
   7    12.06   11.42   11.31   11.28   11.27   11.27   11.28   11.31   11.42   12.06
   8    11.54   10.18    9.93    9.87    9.84    9.84    9.87    9.93   10.18   11.54
   9    11.05    9.06    8.63    8.44    8.37    8.37    8.44    8.63    9.06   11.05
  10    10.63   10.55   10.48   10.42   10.40   10.40   10.42   10.48   10.55   10.63
1
              HEAD IN LAYER   3 AT END OF TIME STEP   1 IN STRESS PERIOD    1
  ---------------------------------------------------------------------------

           1       2       3       4       5       6       7       8       9      10
 ...................................................................................
   1    13.29   13.30   13.30   13.30   13.30   13.30   13.30   13.30   13.30   13.29
   2    13.27   13.27   13.28   13.28   13.28   13.28   13.28   13.28   13.27   13.27
   3    13.21   13.22   13.22   13.22   13.22   13.22   13.22   13.22   13.22   13.21
   4    13.13   13.13   13.13   13.14   13.14   13.14   13.14   13.13   13.13   13.13
   5    13.02   13.03   13.03   13.03   13.03   13.03   13.03   13.03   13.03   13.02
   6    12.91   12.91   12.91   12.91   12.91   12.91   12.91   12.91   12.91   12.91
   7    12.80   12.80   12.80   12.80   12.80   12.80   12.80   12.80   12.80   12.80
   8    12.71   12.70   12.70   12.70   12.70   12.70   12.70   12.70   12.70   12.71
   9    12.64   12.64   12.63   12.63   12.63   12.63   12.63   12.63   12.64   12.64
  10    12.61   12.61   12.61   12.61   12.61   12.61   12.61   12.61   12.61   12.61

 HEAD WILL BE SAVED ON UNIT   21 AT END OF TIME STEP   1, STRESS PERIOD    1

 DRAWDOWN WILL BE SAVED ON UNIT   22 AT END OF TIME STEP   1, STRESS PERIOD    1
1
  VOLUMETRIC BUDGET FOR ENTIRE MODEL AT END OF TIME STEP  1 IN STRESS PERIOD   1
  ------------------------------------------------------------------------------

     CUMULATIVE VOLUMES      L**3       RATES FOR THIS TIME STEP      L**3/T
     ------------------                 ------------------------

           IN:                                      IN:
           ---                                      ---
             STORAGE =           0.0000               STORAGE =           0.0000
       CONSTANT HEAD =           0.0000         CONSTANT HEAD =           0.0000
               WELLS =       30000.0000                 WELLS =       30000.0000
    INST. IB STORAGE =           0.0000      INST. IB STORAGE =           0.0000
    DELAY IB STORAGE =           0.0000      DELAY IB STORAGE =           0.0000

            TOTAL IN =       30000.0000              TOTAL IN =       30000.0000

          OUT:                                     OUT:
          ----                                     ----
             STORAGE =           0.0000               STORAGE =           0.0000
       CONSTANT HEAD =       30000.0312         CONSTANT HEAD =       30000.0312
               WELLS =           0.0000                 WELLS =           0.0000
    INST. IB STORAGE =           0.0000      INST. IB STORAGE =           0.0000
    DELAY IB STORAGE =           0.0000      DELAY IB STORAGE =           0.0000

           TOTAL OUT =       30000.0312             TOTAL OUT =       30000.0312

            IN - OUT =      -3.1250E-02              IN - OUT =      -3.1250E-02

 PERCENT DISCREPANCY =           0.00     PERCENT DISCREPANCY =           0.00






          TIME SUMMARY AT END OF TIME STEP   1 IN STRESS PERIOD    1
                    SECONDS     MINUTES      HOURS       DAYS        YEARS
                    -----------------------------------------------------------
   TIME STEP LENGTH  86400.      1440.0      24.000      1.0000     2.73785E-03
 STRESS PERIOD TIME  86400.      1440.0      24.000      1.0000     2.73785E-03
         TOTAL TIME  86400.      1440.0      24.000      1.0000     2.73785E-03
1
1
                            STRESS PERIOD NO.    2, LENGTH =   365.3000    
                            -----------------------------------------------

                              NUMBER OF TIME STEPS =     6

                               MULTIPLIER FOR DELT =     1.300

                            INITIAL TIME STEP SIZE =   28.63744    

 WELL NO.  LAYER   ROW   COL   STRESS RATE         
 --------------------------------------------------
      1      1      1      1       3000.    
      2      1      1      2       3000.    
      3      1      1      9       3000.    
      4      1      1     10       3000.    
      5      1      2      1       3000.    
      6      1      2     10       3000.    
      7      1      3      1       3000.    
      8      1      3     10       3000.    
      9      1      4      1       3000.    
     10      1      4     10       3000.    
     11      3      3      6     -0.1400E+05
     12      3      3      7      -8000.    
     13      3      4      6      -5000.    
     14      3      4      7      -3000.    

     14 WELLS
 
 SOLVING FOR HEAD 

    36 ITERATIONS FOR TIME STEP   1 IN STRESS PERIOD    2

 MAXIMUM HEAD CHANGE FOR EACH ITERATION:

    HEAD CHANGE   HEAD CHANGE   HEAD CHANGE   HEAD CHANGE   HEAD CHANGE
  LAYER,ROW,COL LAYER,ROW,COL LAYER,ROW,COL LAYER,ROW,COL LAYER,ROW,COL
 ----------------------------------------------------------------------
     -6.802        -3.312        -3.377        -1.292        0.5812    
  (  3,  3,  6) (  3,  2,  8) (  3,  2,  7) (  3,  3,  1) (  3,  1,  1)
    -0.1455        0.1651        0.4065        0.3511        0.1262    
  (  2,  7,  1) (  3,  2,  9) (  3,  1, 10) (  3,  2,  1) (  3,  1, 10)
     0.2769E-01    0.3005E-01    0.5811E-01    0.5325E-01    0.1428E-01
  (  2,  8,  1) (  3,  1, 10) (  3,  2,  6) (  3,  1, 10) (  3,  3,  7)
     0.2964E-02    0.4981E-02    0.1055E-01    0.7563E-02    0.3029E-02
  (  2,  8,  1) (  3,  3,  7) (  3,  1, 10) (  3,  2,  6) (  3,  3,  7)
     0.8697E-03    0.9239E-03    0.1539E-02    0.1290E-02    0.4381E-03
  (  2,  8,  1) (  3,  3,  7) (  3,  3,  7) (  3,  3,  7) (  3,  3,  7)
     0.1087E-03    0.2149E-03    0.4049E-03    0.2746E-03    0.1341E-03
  (  3,  3,  7) (  3,  3,  7) (  3,  3,  7) (  3,  3,  7) (  3,  3,  7)
     0.3271E-04    0.4455E-04    0.8819E-04    0.6815E-04   -0.4221E-04
  (  2,  8,  1) (  3,  3,  7) (  3,  3,  7) (  3,  3,  7) (  3, 10,  3)
    -0.7574E-05
  (  3,  1,  1)


 OUTPUT CONTROL FOR STRESS PERIOD    2   TIME STEP   1
    PRINT HEAD FOR ALL LAYERS
    PRINT BUDGET
    SAVE HEAD FOR ALL LAYERS
1
              HEAD IN LAYER   1 AT END OF TIME STEP   1 IN STRESS PERIOD    2
  ---------------------------------------------------------------------------

           1       2       3       4       5       6       7       8       9      10
 ...................................................................................
   1    22.66   22.31   21.66   21.24   21.04   21.04   21.24   21.66   22.31   22.66
   2    21.62   21.13   20.71   20.42   20.27   20.27   20.42   20.71   21.13   21.62
   3    20.11   19.63   19.27   19.02   18.90   18.90   19.02   19.27   19.63   20.11
   4    18.05   17.62   17.33   17.14   17.05   17.05   17.14   17.33   17.62   18.05
   5    15.11   15.03   14.93   14.85   14.81   14.81   14.85   14.93   15.03   15.11
   6    12.47   12.44   12.40   12.37   12.35   12.35   12.37   12.40   12.44   12.47
   7     9.87    9.84    9.80    9.77    9.74    9.74    9.77    9.80    9.84    9.87
   8     7.30    7.23    7.13    7.03    6.97    6.97    7.03    7.13    7.23    7.30
   9     4.89    4.71    4.38    4.02    3.86    3.86    4.02    4.38    4.71    4.89
  10     3.13    2.68    1.70    0.00    0.00    0.00    0.00    1.70    2.68    3.13
1
              HEAD IN LAYER   2 AT END OF TIME STEP   1 IN STRESS PERIOD    2
  ---------------------------------------------------------------------------

           1       2       3       4       5       6       7       8       9      10
 ...................................................................................
   1    13.88   13.93   13.96   13.97   13.98   13.97   13.95   13.92   13.87   13.81
   2    13.62   15.71   15.74   15.50   15.27   15.13   15.20   15.41   15.39   13.51
   3    13.28   15.02   14.97   14.60   14.09   13.39   13.63   14.29   14.52   13.15
   4    12.88   14.16   14.11   13.84   13.52   13.16   13.27   13.63   13.76   12.75
   5    12.44   13.14   13.14   13.02   12.91   12.83   12.84   12.92   12.91   12.32
   6    11.97   12.09   12.06   12.01   11.96   11.94   11.94   11.96   11.97   11.87
   7    11.50   10.99   10.88   10.84   10.81   10.80   10.81   10.83   10.93   11.42
   8    11.04    9.85    9.62    9.54    9.51    9.50    9.53    9.59    9.82   10.98
   9    10.61    8.79    8.38    8.19    8.11    8.11    8.18    8.37    8.78   10.57
  10    10.23   10.15   10.08   10.03   10.01   10.01   10.03   10.07   10.13   10.21
1
              HEAD IN LAYER   3 AT END OF TIME STEP   1 IN STRESS PERIOD    2
  ---------------------------------------------------------------------------

           1       2       3       4       5       6       7       8       9      10
 ...................................................................................
   1     8.96    8.84    8.61    8.31    7.99    7.74    7.65    7.70    7.79    7.86
   2     8.75    8.55    8.15    7.56    6.84    6.19    6.19    6.61    7.01    7.24
   3     8.60    8.28    7.59    6.38    4.36    0.93    1.84    4.51    5.92    6.54
   4     8.96    8.71    8.18    7.32    6.06    4.33    4.66    5.99    6.84    7.25
   5     9.67    9.54    9.28    8.91    8.48    8.11    8.08    8.28    8.50    8.63
   6    10.38   10.32   10.21   10.07    9.91    9.79    9.75    9.76    9.80    9.83
   7    10.94   10.91   10.86   10.80   10.74   10.69   10.66   10.65   10.65   10.66
   8    11.31   11.30   11.28   11.25   11.22   11.20   11.18   11.17   11.17   11.17
   9    11.54   11.53   11.52   11.50   11.49   11.48   11.47   11.46   11.46   11.46
  10    11.65   11.64   11.64   11.63   11.62   11.61   11.61   11.60   11.60   11.60

 HEAD WILL BE SAVED ON UNIT   21 AT END OF TIME STEP   1, STRESS PERIOD    2
1
  VOLUMETRIC BUDGET FOR ENTIRE MODEL AT END OF TIME STEP  1 IN STRESS PERIOD   2
  ------------------------------------------------------------------------------

     CUMULATIVE VOLUMES      L**3       RATES FOR THIS TIME STEP      L**3/T
     ------------------                 ------------------------

           IN:                                      IN:
           ---                                      ---
             STORAGE =      224229.1406               STORAGE =        7829.9297
       CONSTANT HEAD =           0.0000         CONSTANT HEAD =           0.0000
               WELLS =      889123.1875                 WELLS =       30000.0000
    INST. IB STORAGE =      344507.7812      INST. IB STORAGE =       12029.9775
    DELAY IB STORAGE =      290022.8125      DELAY IB STORAGE =       10127.4004

            TOTAL IN =     1747882.8750              TOTAL IN =       59987.3086

          OUT:                                     OUT:
          ----                                     ----
             STORAGE =           0.0000               STORAGE =           0.0000
       CONSTANT HEAD =      888772.0625         CONSTANT HEAD =       29987.7383
               WELLS =      859123.1875                 WELLS =       30000.0000
    INST. IB STORAGE =           0.0000      INST. IB STORAGE =           0.0000
    DELAY IB STORAGE =           0.0000      DELAY IB STORAGE =           0.0000

           TOTAL OUT =     1747895.2500             TOTAL OUT =       59987.7383

            IN - OUT =         -12.3750              IN - OUT =          -0.4297

 PERCENT DISCREPANCY =           0.00     PERCENT DISCREPANCY =           0.00






          TIME SUMMARY AT END OF TIME STEP   1 IN STRESS PERIOD    2
                    SECONDS     MINUTES      HOURS       DAYS        YEARS
                    -----------------------------------------------------------
   TIME STEP LENGTH 2.47427E+06  41238.      687.30      28.637     7.84050E-02
 STRESS PERIOD TIME 2.47427E+06  41238.      687.30      28.637     7.84050E-02
         TOTAL TIME 2.56067E+06  42678.      711.30      29.637     8.11429E-02
1
 
 SOLVING FOR HEAD 
    36 ITERATIONS FOR TIME STEP   2 IN STRESS PERIOD    2

 MAXIMUM HEAD CHANGE FOR EACH ITERATION:

    HEAD CHANGE   HEAD CHANGE   HEAD CHANGE   HEAD CHANGE   HEAD CHANGE
  LAYER,ROW,COL LAYER,ROW,COL LAYER,ROW,COL LAYER,ROW,COL LAYER,ROW,COL
 ----------------------------------------------------------------------
     -1.952        -2.327        -3.284        -1.812        0.6614    
  (  2,  3,  6) (  3,  1, 10) (  3,  1,  1) (  3,  4,  1) (  3,  1,  1)
    -0.2336        0.1657        0.4562        0.4924        0.1728    
  (  2,  6,  1) (  3,  1,  1) (  3,  1, 10) (  3,  2,  1) (  3,  1, 10)
     0.3521E-01    0.2605E-01    0.5743E-01    0.6173E-01    0.1612E-01
  (  2,  8,  1) (  3,  1, 10) (  3,  1,  1) (  3,  1, 10) (  3,  2,  9)
     0.2922E-02    0.3667E-02    0.9051E-02    0.7310E-02    0.2698E-02
  (  2,  8,  1) (  3,  1,  1) (  3,  1, 10) (  3,  1,  1) (  3,  1, 10)
     0.9501E-03    0.6466E-03    0.1146E-02    0.1059E-02    0.3145E-03
  (  2,  9,  1) (  3,  1, 10) (  3,  2,  7) (  3,  1, 10) (  3,  2, 10)
    -0.1222E-03    0.1226E-03    0.2797E-03    0.1891E-03    0.8038E-04
  (  2,  2,  1) (  3,  3,  8) (  3,  1, 10) (  3,  2,  6) (  3,  2,  9)
     0.3750E-04    0.1251E-04    0.2474E-04   -0.3492E-04   -0.3535E-04
  (  2,  9,  1) (  3,  3,  7) (  3,  2,  9) (  3, 10,  1) (  3, 10,  1)
    -0.5773E-05
  (  2,  2,  1)


 OUTPUT CONTROL FOR STRESS PERIOD    2   TIME STEP   2
    PRINT HEAD FOR ALL LAYERS
    PRINT BUDGET
    SAVE HEAD FOR ALL LAYERS
1
              HEAD IN LAYER   1 AT END OF TIME STEP   2 IN STRESS PERIOD    2
  ---------------------------------------------------------------------------

           1       2       3       4       5       6       7       8       9      10
 ...................................................................................
   1    22.65   22.31   21.65   21.24   21.04   21.04   21.24   21.65   22.31   22.65
   2    21.62   21.12   20.71   20.41   20.26   20.26   20.41   20.71   21.12   21.62
   3    20.11   19.62   19.26   19.02   18.90   18.90   19.02   19.26   19.62   20.11
   4    18.04   17.62   17.32   17.14   17.05   17.04   17.14   17.32   17.61   18.04
   5    15.11   15.03   14.93   14.85   14.80   14.80   14.85   14.93   15.03   15.11
   6    12.47   12.44   12.40   12.36   12.34   12.34   12.36   12.40   12.44   12.47
   7     9.87    9.84    9.80    9.76    9.74    9.74    9.76    9.80    9.84    9.87
   8     7.30    7.23    7.13    7.03    6.97    6.97    7.03    7.13    7.23    7.29
   9     4.89    4.71    4.38    4.02    3.86    3.86    4.02    4.38    4.71    4.89
  10     3.13    2.68    1.70    0.00    0.00    0.00    0.00    1.70    2.68    3.13
1
              HEAD IN LAYER   2 AT END OF TIME STEP   2 IN STRESS PERIOD    2
  ---------------------------------------------------------------------------

           1       2       3       4       5       6       7       8       9      10
 ...................................................................................
   1    12.04   12.07   12.09   12.10   12.09   12.08   12.06   12.03   11.99   11.94
   2    11.84   13.68   13.61   13.26   12.90   12.65   12.70   12.97   13.06   11.68
   3    11.58   13.00   12.80   12.22   11.38   10.22   10.55   11.56   12.07   11.38
   4    11.26   12.31   12.14   11.71   11.18   10.57   10.70   11.24   11.56   11.06
   5    10.91   11.54   11.48   11.30   11.10   10.95   10.95   11.05   11.10   10.73
   6    10.54   10.75   10.71   10.63   10.55   10.50   10.48   10.50   10.52   10.38
   7    10.16    9.88    9.78    9.73    9.69    9.66    9.66    9.68    9.75   10.03
   8     9.78    8.91    8.70    8.63    8.58    8.57    8.59    8.65    8.84    9.69
   9     9.42    7.96    7.58    7.39    7.30    7.30    7.37    7.55    7.92    9.36
  10     9.10    9.03    8.97    8.93    8.91    8.90    8.92    8.95    9.00    9.07
1
              HEAD IN LAYER   3 AT END OF TIME STEP   2 IN STRESS PERIOD    2
  ---------------------------------------------------------------------------

           1       2       3       4       5       6       7       8       9      10
 ...................................................................................
   1     3.51    3.35    3.05    2.67    2.26    1.93    1.79    1.81    1.90    1.96
   2     3.34    3.10    2.61    1.91    1.07    0.33    0.27    0.68    1.10    1.33
   3     3.36    2.99    2.19    0.83   -1.37   -4.95   -4.07   -1.36    0.11    0.76
   4     4.11    3.81    3.18    2.20    0.80   -1.04   -0.76    0.59    1.47    1.90
   5     5.36    5.19    4.87    4.42    3.91    3.48    3.41    3.60    3.82    3.96
   6     6.65    6.57    6.43    6.24    6.04    5.88    5.80    5.80    5.84    5.86
   7     7.74    7.70    7.64    7.55    7.47    7.39    7.35    7.32    7.31    7.31
   8     8.54    8.52    8.49    8.45    8.41    8.37    8.35    8.33    8.32    8.31
   9     9.06    9.05    9.03    9.01    8.99    8.97    8.95    8.94    8.93    8.93
  10     9.32    9.31    9.30    9.29    9.27    9.26    9.25    9.24    9.23    9.23

 HEAD WILL BE SAVED ON UNIT   21 AT END OF TIME STEP   2, STRESS PERIOD    2
1
  VOLUMETRIC BUDGET FOR ENTIRE MODEL AT END OF TIME STEP  2 IN STRESS PERIOD   2
  ------------------------------------------------------------------------------

     CUMULATIVE VOLUMES      L**3       RATES FOR THIS TIME STEP      L**3/T
     ------------------                 ------------------------

           IN:                                      IN:
           ---                                      ---
             STORAGE =      515904.7500               STORAGE =        7834.7031
       CONSTANT HEAD =           0.0000         CONSTANT HEAD =           0.0000
               WELLS =     2005983.3750                 WELLS =       30000.0000
    INST. IB STORAGE =      742645.0000      INST. IB STORAGE =       10694.3711
    DELAY IB STORAGE =      715139.1875      DELAY IB STORAGE =       11419.0586

            TOTAL IN =     3979672.2500              TOTAL IN =       59948.1328

          OUT:                                     OUT:
          ----                                     ----
             STORAGE =           0.0000               STORAGE =           0.0000
       CONSTANT HEAD =     2003692.5000         CONSTANT HEAD =       29947.8965
               WELLS =     1975983.3750                 WELLS =       30000.0000
    INST. IB STORAGE =           0.0000      INST. IB STORAGE =           0.0000
    DELAY IB STORAGE =           0.0000      DELAY IB STORAGE =           0.0000

           TOTAL OUT =     3979676.0000             TOTAL OUT =       59947.8984

            IN - OUT =          -3.7500              IN - OUT =           0.2344

 PERCENT DISCREPANCY =           0.00     PERCENT DISCREPANCY =           0.00






          TIME SUMMARY AT END OF TIME STEP   2 IN STRESS PERIOD    2
                    SECONDS     MINUTES      HOURS       DAYS        YEARS
                    -----------------------------------------------------------
   TIME STEP LENGTH 3.21656E+06  53609.      893.49      37.229     0.10193    
 STRESS PERIOD TIME 5.69083E+06  94847.      1580.8      65.866     0.18033    
         TOTAL TIME 5.77723E+06  96287.      1604.8      66.866     0.18307    
1
 
 SOLVING FOR HEAD 
    36 ITERATIONS FOR TIME STEP   3 IN STRESS PERIOD    2

 MAXIMUM HEAD CHANGE FOR EACH ITERATION:

    HEAD CHANGE   HEAD CHANGE   HEAD CHANGE   HEAD CHANGE   HEAD CHANGE
  LAYER,ROW,COL LAYER,ROW,COL LAYER,ROW,COL LAYER,ROW,COL LAYER,ROW,COL
 ----------------------------------------------------------------------
     -1.931        -1.987        -2.935        -1.853        0.5227    
  (  2,  3,  6) (  3,  1, 10) (  3,  1,  1) (  3,  8,  1) (  3,  1,  1)
    -0.3121        0.1531        0.4030        0.4939        0.1624    
  (  2,  5,  1) (  3, 10, 10) (  3, 10,  1) (  3, 10, 10) (  3,  1,  1)
     0.3400E-01    0.4292E-01    0.6964E-01    0.6490E-01    0.2541E-01
  (  2,  4,  1) (  3,  1, 10) (  3,  1,  1) (  3,  8,  1) (  3,  5,  1)
     0.4264E-02    0.6232E-02    0.1070E-01    0.8515E-02    0.3215E-02
  (  3,  2,  6) (  3,  1,  1) (  3,  1,  4) (  3,  4,  1) (  3,  1,  4)
     0.1015E-02    0.1017E-02    0.1372E-02    0.1113E-02    0.4476E-03
  (  2,  8,  1) (  3,  1, 10) (  3,  1,  1) (  3,  1,  2) (  3,  4,  1)
    -0.1224E-03    0.1657E-03    0.2830E-03    0.1776E-03    0.9763E-04
  (  2,  2,  1) (  3,  1,  1) (  3,  1,  4) (  3,  4,  1) (  3,  1,  4)
     0.3931E-04    0.4032E-04    0.4666E-04    0.4396E-04   -0.2718E-04
  (  2,  8,  1) (  3,  1, 10) (  3,  1,  9) (  3,  1,  2) (  3, 10,  2)
    -0.6638E-05
  (  3, 10,  1)


 OUTPUT CONTROL FOR STRESS PERIOD    2   TIME STEP   3
    PRINT HEAD FOR ALL LAYERS
    PRINT BUDGET
    SAVE HEAD FOR ALL LAYERS
1
              HEAD IN LAYER   1 AT END OF TIME STEP   3 IN STRESS PERIOD    2
  ---------------------------------------------------------------------------

           1       2       3       4       5       6       7       8       9      10
 ...................................................................................
   1    22.65   22.30   21.65   21.23   21.03   21.03   21.23   21.65   22.30   22.65
   2    21.61   21.11   20.70   20.41   20.26   20.25   20.40   20.70   21.11   21.61
   3    20.10   19.62   19.25   19.01   18.89   18.89   19.01   19.25   19.61   20.10
   4    18.04   17.61   17.31   17.13   17.04   17.04   17.13   17.31   17.61   18.03
   5    15.11   15.02   14.92   14.84   14.80   14.80   14.84   14.92   15.02   15.10
   6    12.46   12.43   12.39   12.36   12.34   12.34   12.36   12.39   12.43   12.46
   7     9.86    9.84    9.80    9.76    9.74    9.73    9.76    9.80    9.84    9.86
   8     7.29    7.23    7.13    7.02    6.96    6.96    7.02    7.13    7.23    7.29
   9     4.88    4.70    4.38    4.01    3.86    3.86    4.01    4.38    4.70    4.88
  10     3.13    2.67    1.69    0.00    0.00    0.00    0.00    1.69    2.67    3.13
1
              HEAD IN LAYER   2 AT END OF TIME STEP   3 IN STRESS PERIOD    2
  ---------------------------------------------------------------------------

           1       2       3       4       5       6       7       8       9      10
 ...................................................................................
   1     9.71    9.74    9.75    9.75    9.74    9.73    9.71    9.68    9.65    9.60
   2     9.56   11.12   10.98   10.58   10.18    9.88    9.92   10.20   10.37    9.39
   3     9.34   10.49   10.20    9.53    8.58    7.29    7.64    8.74    9.39    9.13
   4     9.08    9.93    9.68    9.19    8.55    7.83    7.97    8.59    9.02    8.87
   5     8.80    9.35    9.26    9.03    8.80    8.61    8.60    8.72    8.80    8.59
   6     8.49    8.77    8.72    8.63    8.53    8.46    8.44    8.45    8.46    8.31
   7     8.16    8.08    8.01    7.95    7.90    7.86    7.85    7.87    7.91    8.02
   8     7.84    7.27    7.09    7.02    6.97    6.95    6.97    7.02    7.17    7.73
   9     7.53    6.41    6.07    5.88    5.79    5.78    5.85    6.03    6.35    7.46
  10     7.25    7.19    7.13    7.09    7.07    7.07    7.08    7.11    7.16    7.21
1
              HEAD IN LAYER   3 AT END OF TIME STEP   3 IN STRESS PERIOD    2
  ---------------------------------------------------------------------------

           1       2       3       4       5       6       7       8       9      10
 ...................................................................................
   1    -1.69   -1.84   -2.12   -2.49   -2.88   -3.19   -3.34   -3.34   -3.28   -3.22
   2    -1.77   -1.99   -2.45   -3.10   -3.87   -4.55   -4.63   -4.28   -3.92   -3.72
   3    -1.59   -1.93   -2.67   -3.92   -5.89   -9.04   -8.29   -5.95   -4.66   -4.08
   4    -0.67   -0.95   -1.55   -2.49   -3.83   -5.61   -5.34   -4.05   -3.22   -2.82
   5     0.80    0.64    0.32   -0.11   -0.61   -1.04   -1.11   -0.94   -0.73   -0.60
   6     2.34    2.26    2.12    1.93    1.73    1.57    1.49    1.48    1.51    1.53
   7     3.68    3.65    3.58    3.50    3.41    3.33    3.28    3.25    3.24    3.24
   8     4.71    4.69    4.66    4.62    4.57    4.53    4.50    4.48    4.47    4.46
   9     5.40    5.38    5.37    5.34    5.32    5.29    5.28    5.26    5.25    5.25
  10     5.74    5.73    5.72    5.71    5.69    5.67    5.66    5.65    5.64    5.64

 HEAD WILL BE SAVED ON UNIT   21 AT END OF TIME STEP   3, STRESS PERIOD    2
1
  VOLUMETRIC BUDGET FOR ENTIRE MODEL AT END OF TIME STEP  3 IN STRESS PERIOD   2
  ------------------------------------------------------------------------------

     CUMULATIVE VOLUMES      L**3       RATES FOR THIS TIME STEP      L**3/T
     ------------------                 ------------------------

           IN:                                      IN:
           ---                                      ---
             STORAGE =      897659.1250               STORAGE =        7887.9316
       CONSTANT HEAD =           0.0000         CONSTANT HEAD =           0.0000
               WELLS =     3457901.5000                 WELLS =       30000.0000
    INST. IB STORAGE =     1291320.0000      INST. IB STORAGE =       11336.8994
    DELAY IB STORAGE =     1230219.6250      DELAY IB STORAGE =       10642.7568

            TOTAL IN =     6877100.0000              TOTAL IN =       59867.5859

          OUT:                                     OUT:
          ----                                     ----
             STORAGE =           0.0000               STORAGE =           0.0000
       CONSTANT HEAD =     3449211.2500         CONSTANT HEAD =       29867.7734
               WELLS =     3427901.5000                 WELLS =       30000.0000
    INST. IB STORAGE =           0.0000      INST. IB STORAGE =           0.0000
    DELAY IB STORAGE =           0.0000      DELAY IB STORAGE =           0.0000

           TOTAL OUT =     6877113.0000             TOTAL OUT =       59867.7734

            IN - OUT =         -13.0000              IN - OUT =          -0.1875

 PERCENT DISCREPANCY =           0.00     PERCENT DISCREPANCY =           0.00






          TIME SUMMARY AT END OF TIME STEP   3 IN STRESS PERIOD    2
                    SECONDS     MINUTES      HOURS       DAYS        YEARS
                    -----------------------------------------------------------
   TIME STEP LENGTH 4.18152E+06  69692.      1161.5      48.397     0.13250    
 STRESS PERIOD TIME 9.87236E+06 1.64539E+05  2742.3      114.26     0.31284    
         TOTAL TIME 9.95876E+06 1.65979E+05  2766.3      115.26     0.31557    
1
 
 SOLVING FOR HEAD 
    39 ITERATIONS FOR TIME STEP   4 IN STRESS PERIOD    2

 MAXIMUM HEAD CHANGE FOR EACH ITERATION:

    HEAD CHANGE   HEAD CHANGE   HEAD CHANGE   HEAD CHANGE   HEAD CHANGE
  LAYER,ROW,COL LAYER,ROW,COL LAYER,ROW,COL LAYER,ROW,COL LAYER,ROW,COL
 ----------------------------------------------------------------------
     -1.729        -1.619        -2.505        -1.614        0.4172    
  (  2,  3,  6) (  3,  1, 10) (  3, 10, 10) (  3, 10,  1) (  2,  1,  1)
    -0.3480        0.1063        0.2730        0.3520        0.6908E-01
  (  2,  5,  1) (  3, 10,  3) (  3, 10,  1) (  3, 10, 10) (  3,  1,  1)
     0.3138E-01    0.2318E-01    0.5796E-01    0.6188E-01    0.2822E-01
  (  2,  4,  1) (  3,  1,  4) (  3, 10, 10) (  3, 10,  1) (  3,  8,  1)
     0.4394E-02    0.6788E-02    0.8337E-02    0.1103E-01    0.3426E-02
  (  3,  1,  5) (  3,  1,  1) (  3,  1,  2) (  3,  7,  1) (  3,  1,  1)
     0.8181E-03    0.1356E-02    0.1994E-02    0.1858E-02    0.9305E-03
  (  2,  5,  1) (  3,  1,  8) (  3,  5,  2) (  3, 10,  1) (  3,  6,  1)
     0.2066E-03    0.3411E-03    0.4380E-03    0.4006E-03    0.1795E-03
  (  3,  1,  5) (  3,  1,  1) (  3,  1,  2) (  3,  5,  1) (  3,  1,  1)
     0.4895E-04    0.8234E-04    0.8604E-04    0.7171E-04    0.5195E-04
  (  2,  7,  1) (  3,  1, 10) (  3,  1,  1) (  3,  1,  1) (  3,  6,  1)
     0.1227E-04    0.1320E-04    0.1594E-04    0.8591E-05
  (  3,  1,  5) (  3,  1,  1) (  3,  1,  1) (  3,  4,  1)


 OUTPUT CONTROL FOR STRESS PERIOD    2   TIME STEP   4
    PRINT HEAD FOR ALL LAYERS
    PRINT BUDGET
    SAVE HEAD FOR ALL LAYERS
1
              HEAD IN LAYER   1 AT END OF TIME STEP   4 IN STRESS PERIOD    2
  ---------------------------------------------------------------------------

           1       2       3       4       5       6       7       8       9      10
 ...................................................................................
   1    22.63   22.29   21.63   21.22   21.02   21.02   21.22   21.63   22.29   22.63
   2    21.60   21.10   20.68   20.39   20.24   20.24   20.39   20.68   21.10   21.59
   3    20.09   19.60   19.24   19.00   18.87   18.87   18.99   19.23   19.60   20.09
   4    18.02   17.59   17.30   17.11   17.02   17.02   17.11   17.30   17.59   18.02
   5    15.09   15.01   14.91   14.83   14.78   14.78   14.82   14.90   15.00   15.09
   6    12.45   12.42   12.38   12.35   12.33   12.32   12.35   12.38   12.42   12.45
   7     9.85    9.83    9.79    9.75    9.72    9.72    9.75    9.79    9.83    9.85
   8     7.28    7.22    7.12    7.01    6.95    6.95    7.01    7.12    7.22    7.28
   9     4.88    4.69    4.37    4.00    3.85    3.85    4.00    4.37    4.69    4.88
  10     3.12    2.67    1.69    0.00    0.00    0.00    0.00    1.69    2.67    3.12
1
              HEAD IN LAYER   2 AT END OF TIME STEP   4 IN STRESS PERIOD    2
  ---------------------------------------------------------------------------

           1       2       3       4       5       6       7       8       9      10
 ...................................................................................
   1     7.50    7.53    7.54    7.55    7.54    7.53    7.51    7.49    7.46    7.42
   2     7.34    8.76    8.62    8.24    7.87    7.61    7.67    7.95    8.12    7.21
   3     7.13    8.17    7.88    7.26    6.39    5.08    5.47    6.60    7.23    6.97
   4     6.87    7.64    7.39    6.92    6.32    5.64    5.80    6.39    6.83    6.70
   5     6.59    7.10    7.01    6.79    6.57    6.39    6.38    6.50    6.60    6.42
   6     6.28    6.57    6.53    6.44    6.35    6.28    6.26    6.27    6.28    6.14
   7     5.96    5.94    5.88    5.83    5.78    5.74    5.73    5.75    5.78    5.85
   8     5.64    5.18    5.03    4.96    4.91    4.89    4.91    4.96    5.08    5.55
   9     5.34    4.35    4.05    3.86    3.77    3.76    3.83    4.00    4.29    5.28
  10     5.06    5.00    4.95    4.91    4.89    4.89    4.90    4.93    4.97    5.03
1
              HEAD IN LAYER   3 AT END OF TIME STEP   4 IN STRESS PERIOD    2
  ---------------------------------------------------------------------------

           1       2       3       4       5       6       7       8       9      10
 ...................................................................................
   1    -5.46   -5.57   -5.79   -6.06   -6.35   -6.57   -6.66   -6.65   -6.60   -6.56
   2    -5.47   -5.65   -5.99   -6.49   -7.05   -7.54   -7.54   -7.25   -7.00   -6.85
   3    -5.25   -5.52   -6.10   -7.06   -8.60  -11.64  -10.75   -8.44   -7.42   -7.01
   4    -4.39   -4.62   -5.10   -5.85   -6.93   -8.38   -8.09   -7.01   -6.33   -6.01
   5    -3.05   -3.18   -3.44   -3.79   -4.19   -4.53   -4.57   -4.42   -4.24   -4.14
   6    -1.62   -1.69   -1.80   -1.96   -2.12   -2.25   -2.31   -2.31   -2.28   -2.26
   7    -0.36   -0.39   -0.44   -0.51   -0.58   -0.65   -0.69   -0.71   -0.72   -0.72
   8     0.63    0.61    0.59    0.55    0.52    0.48    0.46    0.44    0.43    0.42
   9     1.30    1.29    1.27    1.25    1.23    1.21    1.20    1.18    1.18    1.17
  10     1.64    1.63    1.62    1.61    1.59    1.58    1.57    1.56    1.55    1.55

 HEAD WILL BE SAVED ON UNIT   21 AT END OF TIME STEP   4, STRESS PERIOD    2
1
  VOLUMETRIC BUDGET FOR ENTIRE MODEL AT END OF TIME STEP  4 IN STRESS PERIOD   2
  ------------------------------------------------------------------------------

     CUMULATIVE VOLUMES      L**3       RATES FOR THIS TIME STEP      L**3/T
     ------------------                 ------------------------

           IN:                                      IN:
           ---                                      ---
             STORAGE =     1355291.7500               STORAGE =        7273.6553
       CONSTANT HEAD =           0.0000         CONSTANT HEAD =           0.0000
               WELLS =     5345395.0000                 WELLS =       30000.0000
    INST. IB STORAGE =     2108039.0000      INST. IB STORAGE =       12981.0107
    DELAY IB STORAGE =     1827210.6250      DELAY IB STORAGE =        9488.6318

            TOTAL IN =    10635936.0000              TOTAL IN =       59743.2969

          OUT:                                     OUT:
          ----                                     ----
             STORAGE =           0.0000               STORAGE =           0.0000
       CONSTANT HEAD =     5320555.5000         CONSTANT HEAD =       29743.3262
               WELLS =     5315395.0000                 WELLS =       30000.0000
    INST. IB STORAGE =           0.0000      INST. IB STORAGE =           0.0000
    DELAY IB STORAGE =           0.0000      DELAY IB STORAGE =           0.0000

           TOTAL OUT =    10635950.0000             TOTAL OUT =       59743.3281

            IN - OUT =         -14.0000              IN - OUT =      -3.1250E-02

 PERCENT DISCREPANCY =           0.00     PERCENT DISCREPANCY =           0.00






          TIME SUMMARY AT END OF TIME STEP   4 IN STRESS PERIOD    2
                    SECONDS     MINUTES      HOURS       DAYS        YEARS
                    -----------------------------------------------------------
   TIME STEP LENGTH 5.43598E+06  90600.      1510.0      62.916     0.17226    
 STRESS PERIOD TIME 1.53083E+07 2.55139E+05  4252.3      177.18     0.48509    
         TOTAL TIME 1.53947E+07 2.56579E+05  4276.3      178.18     0.48783    
1
 
 SOLVING FOR HEAD 
    36 ITERATIONS FOR TIME STEP   5 IN STRESS PERIOD    2

 MAXIMUM HEAD CHANGE FOR EACH ITERATION:

    HEAD CHANGE   HEAD CHANGE   HEAD CHANGE   HEAD CHANGE   HEAD CHANGE
  LAYER,ROW,COL LAYER,ROW,COL LAYER,ROW,COL LAYER,ROW,COL LAYER,ROW,COL
 ----------------------------------------------------------------------
     -1.251       -0.9229        -2.123        -1.314        0.4543    
  (  2,  3,  6) (  3, 10,  1) (  3, 10, 10) (  3, 10,  1) (  2,  1, 10)
    -0.3798        0.7497E-01    0.2002        0.2432        0.4695E-01
  (  2,  1, 10) (  3, 10,  3) (  3, 10,  1) (  3, 10, 10) (  3, 10, 10)
     0.3505E-01    0.2459E-01    0.4541E-01    0.4683E-01    0.1968E-01
  (  2,  3,  1) (  2,  1,  2) (  3, 10, 10) (  3, 10,  1) (  3, 10,  1)
     0.8226E-02    0.2763E-02    0.4836E-02    0.7958E-02    0.1369E-02
  (  2,  2,  1) (  3,  1,  1) (  3, 10,  1) (  3, 10, 10) (  3, 10, 10)
    -0.4106E-03    0.4971E-03    0.1589E-02    0.1649E-02    0.7305E-03
  (  2,  9,  1) (  3, 10,  1) (  3, 10, 10) (  3, 10,  1) (  3,  9,  1)
     0.1825E-03    0.1226E-03    0.9595E-04    0.2560E-03    0.9436E-04
  (  2,  2,  1) (  3,  1,  1) (  3,  9,  9) (  3,  8,  1) (  3, 10,  1)
    -0.2356E-04    0.2666E-04    0.5820E-04    0.8812E-04    0.4741E-04
  (  2,  9,  1) (  3,  2,  1) (  3,  7,  2) (  3, 10,  1) (  3,  9,  1)
    -0.7318E-05
  (  2,  8,  1)


 OUTPUT CONTROL FOR STRESS PERIOD    2   TIME STEP   5
    PRINT HEAD FOR ALL LAYERS
    PRINT BUDGET
    SAVE HEAD FOR ALL LAYERS
1
              HEAD IN LAYER   1 AT END OF TIME STEP   5 IN STRESS PERIOD    2
  ---------------------------------------------------------------------------

           1       2       3       4       5       6       7       8       9      10
 ...................................................................................
   1    22.61   22.27   21.61   21.20   21.00   20.99   21.20   21.61   22.26   22.61
   2    21.57   21.08   20.66   20.37   20.22   20.22   20.36   20.66   21.08   21.57
   3    20.07   19.58   19.22   18.97   18.85   18.85   18.97   19.21   19.57   20.06
   4    18.00   17.57   17.28   17.09   17.00   17.00   17.09   17.27   17.57   18.00
   5    15.07   14.99   14.88   14.80   14.76   14.76   14.80   14.88   14.98   15.07
   6    12.43   12.40   12.36   12.33   12.31   12.30   12.33   12.36   12.40   12.43
   7     9.83    9.81    9.77    9.73    9.71    9.71    9.73    9.77    9.81    9.83
   8     7.26    7.20    7.10    7.00    6.94    6.94    7.00    7.10    7.20    7.26
   9     4.86    4.68    4.36    3.99    3.84    3.84    3.99    4.36    4.68    4.86
  10     3.11    2.65    1.68    0.00    0.00    0.00    0.00    1.68    2.65    3.11
1
              HEAD IN LAYER   2 AT END OF TIME STEP   5 IN STRESS PERIOD    2
  ---------------------------------------------------------------------------

           1       2       3       4       5       6       7       8       9      10
 ...................................................................................
   1     6.03    6.06    6.09    6.10    6.10    6.10    6.08    6.06    6.03    5.99
   2     5.82    7.32    7.23    6.92    6.61    6.37    6.45    6.77    6.95    5.75
   3     5.55    6.68    6.45    5.89    5.00    3.64    4.07    5.30    5.99    5.46
   4     5.24    6.04    5.84    5.44    4.90    4.22    4.40    5.05    5.47    5.14
   5     4.89    5.37    5.29    5.10    4.90    4.74    4.75    4.88    4.99    4.80
   6     4.53    4.72    4.69    4.60    4.52    4.47    4.46    4.48    4.50    4.44
   7     4.16    4.01    3.95    3.89    3.85    3.83    3.82    3.84    3.88    4.09
   8     3.80    3.18    3.04    2.97    2.92    2.91    2.93    2.98    3.11    3.74
   9     3.46    2.32    2.02    1.83    1.75    1.74    1.81    1.98    2.28    3.42
  10     3.15    3.08    3.03    2.99    2.96    2.96    2.98    3.01    3.06    3.13
1
              HEAD IN LAYER   3 AT END OF TIME STEP   5 IN STRESS PERIOD    2
  ---------------------------------------------------------------------------

           1       2       3       4       5       6       7       8       9      10
 ...................................................................................
   1    -6.92   -6.97   -7.06   -7.18   -7.31   -7.41   -7.42   -7.35   -7.27   -7.22
   2    -6.98   -7.07   -7.26   -7.57   -8.02   -8.50   -8.43   -8.02   -7.67   -7.49
   3    -6.92   -7.10   -7.51   -8.35  -10.05  -13.27  -12.30   -9.70   -8.40   -7.86
   4    -6.41   -6.58   -6.94   -7.51   -8.43   -9.96   -9.58   -8.32   -7.64   -7.33
   5    -5.50   -5.60   -5.80   -6.08   -6.42   -6.72   -6.73   -6.52   -6.32   -6.21
   6    -4.46   -4.51   -4.60   -4.73   -4.85   -4.95   -4.99   -4.97   -4.93   -4.90
   7    -3.51   -3.53   -3.57   -3.63   -3.69   -3.73   -3.76   -3.77   -3.77   -3.76
   8    -2.75   -2.76   -2.79   -2.81   -2.84   -2.86   -2.88   -2.89   -2.90   -2.90
   9    -2.23   -2.24   -2.25   -2.27   -2.29   -2.30   -2.31   -2.32   -2.32   -2.32
  10    -1.97   -1.97   -1.98   -1.99   -2.00   -2.01   -2.02   -2.03   -2.03   -2.03

 HEAD WILL BE SAVED ON UNIT   21 AT END OF TIME STEP   5, STRESS PERIOD    2
1
  VOLUMETRIC BUDGET FOR ENTIRE MODEL AT END OF TIME STEP  5 IN STRESS PERIOD   2
  ------------------------------------------------------------------------------

     CUMULATIVE VOLUMES      L**3       RATES FOR THIS TIME STEP      L**3/T
     ------------------                 ------------------------

           IN:                                      IN:
           ---                                      ---
             STORAGE =     1877080.7500               STORAGE =        6379.5103
       CONSTANT HEAD =           0.0000         CONSTANT HEAD =           0.0000
               WELLS =     7799136.5000                 WELLS =       30000.0000
    INST. IB STORAGE =     3241617.7500      INST. IB STORAGE =       13859.3906
    DELAY IB STORAGE =     2591397.7500      DELAY IB STORAGE =        9343.1250

            TOTAL IN =    15509233.0000              TOTAL IN =       59582.0273

          OUT:                                     OUT:
          ----                                     ----
             STORAGE =           0.0000               STORAGE =           0.0000
       CONSTANT HEAD =     7740108.5000         CONSTANT HEAD =       29582.0039
               WELLS =     7769136.5000                 WELLS =       30000.0000
    INST. IB STORAGE =           0.0000      INST. IB STORAGE =           0.0000
    DELAY IB STORAGE =           0.0000      DELAY IB STORAGE =           0.0000

           TOTAL OUT =    15509245.0000             TOTAL OUT =       59582.0039

            IN - OUT =         -12.0000              IN - OUT =       2.3438E-02

 PERCENT DISCREPANCY =           0.00     PERCENT DISCREPANCY =           0.00






          TIME SUMMARY AT END OF TIME STEP   5 IN STRESS PERIOD    2
                    SECONDS     MINUTES      HOURS       DAYS        YEARS
                    -----------------------------------------------------------
   TIME STEP LENGTH 7.06678E+06 1.17780E+05  1963.0      81.791     0.22393    
 STRESS PERIOD TIME 2.23751E+07 3.72919E+05  6215.3      258.97     0.70902    
         TOTAL TIME 2.24615E+07 3.74359E+05  6239.3      259.97     0.71176    
1
 
 SOLVING FOR HEAD 
    37 ITERATIONS FOR TIME STEP   6 IN STRESS PERIOD    2

 MAXIMUM HEAD CHANGE FOR EACH ITERATION:

    HEAD CHANGE   HEAD CHANGE   HEAD CHANGE   HEAD CHANGE   HEAD CHANGE
  LAYER,ROW,COL LAYER,ROW,COL LAYER,ROW,COL LAYER,ROW,COL LAYER,ROW,COL
 ----------------------------------------------------------------------
    -0.8100       -0.6380        -1.434       -0.8199        0.3092    
  (  3,  3, 10) (  3, 10,  1) (  3, 10, 10) (  3, 10,  1) (  2,  1, 10)
    -0.2763        0.4200E-01    0.1189        0.1440        0.2470E-01
  (  2,  1, 10) (  3, 10, 10) (  3, 10,  1) (  3, 10, 10) (  3, 10, 10)
     0.2363E-01    0.1613E-01    0.2723E-01    0.2728E-01    0.9373E-02
  (  2,  3,  1) (  2,  1,  2) (  3, 10, 10) (  3, 10,  1) (  3, 10,  1)
     0.5732E-02    0.1520E-02    0.4076E-02    0.5318E-02    0.1031E-02
  (  2,  2,  1) (  3, 10, 10) (  3, 10,  1) (  3, 10, 10) (  3, 10, 10)
     0.4858E-03    0.4024E-03    0.1171E-02    0.1133E-02    0.4200E-03
  (  2,  3,  1) (  3, 10,  1) (  3, 10, 10) (  3, 10,  1) (  3, 10,  1)
     0.2421E-03   -0.6524E-04    0.1563E-03    0.2333E-03    0.5742E-04
  (  2,  3,  1) (  3,  3,  6) (  3, 10,  1) (  3, 10,  6) (  3, 10,  9)
    -0.3426E-04   -0.2870E-04    0.3110E-04    0.5027E-04    0.4047E-04
  (  2,  9,  1) (  3,  3,  6) (  3, 10,  3) (  3, 10,  1) (  3, 10,  1)
     0.1230E-04   -0.4291E-05
  (  2,  3,  1) (  2, 10,  2)


 OUTPUT CONTROL FOR STRESS PERIOD    2   TIME STEP   6
    PRINT BUDGET
    PRINT HEAD FOR ALL LAYERS
    SAVE HEAD FOR ALL LAYERS
    SAVE DRAWDOWN FOR ALL LAYERS
1
              HEAD IN LAYER   1 AT END OF TIME STEP   6 IN STRESS PERIOD    2
  ---------------------------------------------------------------------------

           1       2       3       4       5       6       7       8       9      10
 ...................................................................................
   1    22.58   22.23   21.58   21.16   20.96   20.96   21.16   21.58   22.23   22.58
   2    21.54   21.05   20.63   20.33   20.18   20.18   20.33   20.63   21.04   21.54
   3    20.03   19.55   19.18   18.94   18.82   18.82   18.94   19.18   19.54   20.03
   4    17.97   17.54   17.25   17.06   16.97   16.97   17.06   17.24   17.54   17.97
   5    15.04   14.95   14.85   14.77   14.73   14.73   14.77   14.85   14.95   15.04
   6    12.40   12.37   12.33   12.30   12.28   12.28   12.30   12.33   12.37   12.40
   7     9.81    9.78    9.74    9.70    9.68    9.68    9.70    9.74    9.78    9.80
   8     7.24    7.18    7.08    6.97    6.91    6.91    6.97    7.07    7.18    7.24
   9     4.84    4.66    4.34    3.97    3.82    3.82    3.97    4.34    4.66    4.84
  10     3.09    2.64    1.67    0.00    0.00    0.00    0.00    1.67    2.64    3.09
1
              HEAD IN LAYER   2 AT END OF TIME STEP   6 IN STRESS PERIOD    2
  ---------------------------------------------------------------------------

           1       2       3       4       5       6       7       8       9      10
 ...................................................................................
   1     5.13    5.18    5.21    5.22    5.22    5.22    5.20    5.17    5.14    5.08
   2     4.89    6.63    6.55    6.22    5.87    5.61    5.71    6.04    6.22    4.81
   3     4.58    5.93    5.69    5.08    4.11    2.70    3.15    4.45    5.17    4.48
   4     4.22    5.18    4.99    4.57    3.99    3.28    3.47    4.16    4.61    4.11
   5     3.81    4.31    4.25    4.08    3.90    3.77    3.79    3.93    4.02    3.71
   6     3.39    3.49    3.45    3.38    3.31    3.27    3.26    3.29    3.32    3.30
   7     2.96    2.64    2.56    2.51    2.47    2.45    2.45    2.47    2.54    2.89
   8     2.55    1.71    1.54    1.46    1.42    1.41    1.43    1.49    1.65    2.49
   9     2.16    0.78    0.45    0.26    0.18    0.18    0.25    0.42    0.75    2.12
  10     1.81    1.74    1.68    1.64    1.61    1.61    1.63    1.67    1.73    1.80
1
              HEAD IN LAYER   3 AT END OF TIME STEP   6 IN STRESS PERIOD    2
  ---------------------------------------------------------------------------

           1       2       3       4       5       6       7       8       9      10
 ...................................................................................
   1    -7.24   -7.31   -7.45   -7.64   -7.85   -8.00   -8.02   -7.94   -7.83   -7.76
   2    -7.36   -7.50   -7.79   -8.25   -8.83   -9.37   -9.31   -8.86   -8.45   -8.23
   3    -7.46   -7.70   -8.26   -9.31  -11.18  -14.49  -13.52  -10.83   -9.42   -8.81
   4    -7.25   -7.41   -7.79   -8.49   -9.59  -11.20  -10.82   -9.47   -8.65   -8.26
   5    -6.78   -6.87   -7.04   -7.29   -7.58   -7.84   -7.82   -7.63   -7.44   -7.33
   6    -6.13   -6.17   -6.25   -6.36   -6.47   -6.55   -6.57   -6.55   -6.50   -6.48
   7    -5.51   -5.53   -5.57   -5.61   -5.66   -5.69   -5.71   -5.72   -5.71   -5.71
   8    -5.00   -5.02   -5.03   -5.06   -5.08   -5.10   -5.11   -5.12   -5.12   -5.12
   9    -4.66   -4.66   -4.67   -4.69   -4.70   -4.71   -4.72   -4.72   -4.73   -4.73
  10    -4.48   -4.48   -4.49   -4.49   -4.50   -4.51   -4.52   -4.52   -4.52   -4.53

 HEAD WILL BE SAVED ON UNIT   21 AT END OF TIME STEP   6, STRESS PERIOD    2

 DRAWDOWN WILL BE SAVED ON UNIT   22 AT END OF TIME STEP   6, STRESS PERIOD    2
1
  VOLUMETRIC BUDGET FOR ENTIRE MODEL AT END OF TIME STEP  6 IN STRESS PERIOD   2
  ------------------------------------------------------------------------------

     CUMULATIVE VOLUMES      L**3       RATES FOR THIS TIME STEP      L**3/T
     ------------------                 ------------------------

           IN:                                      IN:
           ---                                      ---
             STORAGE =     2509991.5000               STORAGE =        5952.3940
       CONSTANT HEAD =           0.0000         CONSTANT HEAD =           0.0000
               WELLS =    10989000.0000                 WELLS =       30000.0000
    INST. IB STORAGE =     4623839.0000      INST. IB STORAGE =       12999.5039
    DELAY IB STORAGE =     3701519.0000      DELAY IB STORAGE =       10440.4590

            TOTAL IN =    21824350.0000              TOTAL IN =       59392.3555

          OUT:                                     OUT:
          ----                                     ----
             STORAGE =           0.0000               STORAGE =           0.0000
       CONSTANT HEAD =    10865367.0000         CONSTANT HEAD =       29392.4043
               WELLS =    10959000.0000                 WELLS =       30000.0000
    INST. IB STORAGE =           0.0000      INST. IB STORAGE =           0.0000
    DELAY IB STORAGE =           0.0000      DELAY IB STORAGE =           0.0000

           TOTAL OUT =    21824368.0000             TOTAL OUT =       59392.4062

            IN - OUT =         -18.0000              IN - OUT =      -5.0781E-02

 PERCENT DISCREPANCY =           0.00     PERCENT DISCREPANCY =           0.00






          TIME SUMMARY AT END OF TIME STEP   6 IN STRESS PERIOD    2
                    SECONDS     MINUTES      HOURS       DAYS        YEARS
                    -----------------------------------------------------------
   TIME STEP LENGTH 9.18681E+06 1.53113E+05  2551.9      106.33     0.29111    
 STRESS PERIOD TIME 3.15619E+07 5.26032E+05  8767.2      365.30      1.0001    
         TOTAL TIME 3.16483E+07 5.27472E+05  8791.2      366.30      1.0029    
1

                               VOLUMETRIC BUDGET FOR SYSTEMS OF DELAY INTERBEDS
                                          AT END OF TIME STEP  6 IN STRESS PERIOD  2

          |   C U M U L A T I V E   V O L U M E S   L**3           | R A T E S   F O R  T H I S  T I M E  S T E P   L**3/T  |
   SYSTEM |    CHANGE IN     BOUNDARY                    PERCENT   |    CHANGE IN     BOUNDARY                    PERCENT   |
   NUMBER |     STORAGE        FLOW           SUM      DISCREPANCY |     STORAGE        FLOW           SUM      DISCREPANCY |
  --------|--------------------------------------------------------|--------------------------------------------------------|
      1     3283.4        -3283.4        0.48828E-03    0.14871E-04     12.980        -12.980        0.19073E-05    0.14695E-04
      2    0.36982E+07   -0.36982E+07   -0.25000       -0.67600E-05     10427.        -10427.         0.0000         0.0000    
  --------|--------------------------------------------------------|--------------------------------------------------------|
 TOTALS:    0.37015E+07   -0.37015E+07   -0.25000       -0.67540E-05     10440.        -10440.         0.0000         0.0000    
1
                            STRESS PERIOD NO.    3, LENGTH =   365.3000    
                            -----------------------------------------------

                              NUMBER OF TIME STEPS =     6

                               MULTIPLIER FOR DELT =     1.300

                            INITIAL TIME STEP SIZE =   28.63744    

 REUSING NON-PARAMETER WELLS FROM LAST STRESS PERIOD

     14 WELLS
 
 SOLVING FOR HEAD 

    40 ITERATIONS FOR TIME STEP   1 IN STRESS PERIOD    3

 MAXIMUM HEAD CHANGE FOR EACH ITERATION:

    HEAD CHANGE   HEAD CHANGE   HEAD CHANGE   HEAD CHANGE   HEAD CHANGE
  LAYER,ROW,COL LAYER,ROW,COL LAYER,ROW,COL LAYER,ROW,COL LAYER,ROW,COL
 ----------------------------------------------------------------------
     0.9686        0.4614       -0.8563        0.3235       -0.1287    
  (  3,  3,  7) (  3,  2,  9) (  3,  3,  7) (  3,  1,  1) (  3,  3,  6)
    -0.9304E-01   -0.3798E-01   -0.4435E-01   -0.3191E-01   -0.2451E-01
  (  3,  3,  6) (  3,  4,  7) (  3,  3,  6) (  3,  3,  6) (  3,  3,  6)
    -0.1744E-01   -0.1562E-01   -0.1173E-01   -0.8597E-02   -0.6662E-02
  (  3,  3,  6) (  3,  3,  6) (  3,  3,  6) (  3,  3,  6) (  3,  3,  6)
    -0.4657E-02   -0.4218E-02   -0.3105E-02   -0.2348E-02   -0.1772E-02
  (  3,  3,  6) (  3,  3,  6) (  3,  3,  6) (  3,  3,  6) (  3,  3,  6)
    -0.1285E-02   -0.1119E-02   -0.8497E-03   -0.6270E-03   -0.4881E-03
  (  3,  3,  6) (  3,  3,  6) (  3,  3,  6) (  3,  3,  6) (  3,  3,  6)
    -0.3469E-03   -0.3057E-03   -0.2278E-03   -0.1733E-03   -0.1306E-03
  (  3,  3,  6) (  3,  3,  6) (  3,  3,  6) (  3,  3,  6) (  3,  3,  6)
    -0.9691E-04   -0.8211E-04   -0.6330E-04   -0.4698E-04   -0.3615E-04
  (  3,  3,  6) (  3,  3,  6) (  3,  3,  6) (  3,  3,  6) (  3,  3,  6)
    -0.2648E-04   -0.2207E-04   -0.1629E-04   -0.1074E-04   -0.6306E-05
  (  3,  3,  6) (  3,  3,  6) (  3,  3,  6) (  3,  3,  6) (  3,  3,  6)


 OUTPUT CONTROL FOR STRESS PERIOD    3   TIME STEP   1
    SAVE HEAD FOR ALL LAYERS

 HEAD WILL BE SAVED ON UNIT   21 AT END OF TIME STEP   1, STRESS PERIOD    3
 
 SOLVING FOR HEAD 
    39 ITERATIONS FOR TIME STEP   2 IN STRESS PERIOD    3

 MAXIMUM HEAD CHANGE FOR EACH ITERATION:

    HEAD CHANGE   HEAD CHANGE   HEAD CHANGE   HEAD CHANGE   HEAD CHANGE
  LAYER,ROW,COL LAYER,ROW,COL LAYER,ROW,COL LAYER,ROW,COL LAYER,ROW,COL
 ----------------------------------------------------------------------
     0.8953        0.3199       -0.6615        0.2015       -0.1316    
  (  3,  3,  6) (  3,  2,  8) (  3,  3,  7) (  3,  1,  3) (  3,  3,  6)
    -0.4378E-01   -0.6023E-01   -0.4389E-01   -0.3209E-01   -0.2397E-01
  (  2,  4,  1) (  3,  3,  6) (  3,  3,  6) (  3,  3,  6) (  3,  3,  6)
    -0.1622E-01   -0.1548E-01   -0.1156E-01   -0.8268E-02   -0.6336E-02
  (  3,  3,  6) (  3,  3,  6) (  3,  3,  6) (  3,  3,  6) (  3,  3,  6)
    -0.4248E-02   -0.4070E-02   -0.2986E-02   -0.2205E-02   -0.1652E-02
  (  3,  3,  6) (  3,  3,  6) (  3,  3,  6) (  3,  3,  6) (  3,  3,  6)
    -0.1154E-02   -0.1054E-02   -0.7986E-03   -0.5773E-03   -0.4465E-03
  (  3,  3,  6) (  3,  3,  6) (  3,  3,  6) (  3,  3,  6) (  3,  3,  6)
    -0.3072E-03   -0.2831E-03   -0.2103E-03   -0.1573E-03   -0.1180E-03
  (  3,  3,  6) (  3,  3,  6) (  3,  3,  6) (  3,  3,  6) (  3,  3,  6)
    -0.8518E-04   -0.7452E-04   -0.5786E-04   -0.4175E-04   -0.3245E-04
  (  3,  3,  6) (  3,  3,  6) (  3,  3,  6) (  3,  3,  6) (  3,  3,  6)
    -0.2298E-04   -0.1944E-04   -0.1367E-04   -0.9153E-05
  (  3,  3,  6) (  3,  3,  6) (  3,  3,  6) (  3,  3,  6)


 OUTPUT CONTROL FOR STRESS PERIOD    3   TIME STEP   2
    SAVE HEAD FOR ALL LAYERS

 HEAD WILL BE SAVED ON UNIT   21 AT END OF TIME STEP   2, STRESS PERIOD    3
 
 SOLVING FOR HEAD 
    39 ITERATIONS FOR TIME STEP   3 IN STRESS PERIOD    3

 MAXIMUM HEAD CHANGE FOR EACH ITERATION:

    HEAD CHANGE   HEAD CHANGE   HEAD CHANGE   HEAD CHANGE   HEAD CHANGE
  LAYER,ROW,COL LAYER,ROW,COL LAYER,ROW,COL LAYER,ROW,COL LAYER,ROW,COL
 ----------------------------------------------------------------------
     0.4862       -0.1521       -0.5138        0.2502       -0.1107    
  (  3,  3,  6) (  3, 10,  1) (  3,  3,  7) (  3,  1, 10) (  3,  3,  6)
    -0.4524E-01   -0.5965E-01   -0.4450E-01   -0.3101E-01   -0.2297E-01
  (  3,  3,  7) (  3,  3,  6) (  3,  3,  6) (  3,  3,  6) (  3,  3,  6)
    -0.1464E-01   -0.1500E-01   -0.1122E-01   -0.7799E-02   -0.5887E-02
  (  3,  3,  6) (  3,  3,  6) (  3,  3,  6) (  3,  3,  6) (  3,  3,  6)
    -0.3767E-02   -0.3826E-02   -0.2831E-02   -0.2025E-02   -0.1504E-02
  (  3,  3,  6) (  3,  3,  6) (  3,  3,  6) (  3,  3,  6) (  3,  3,  6)
    -0.1009E-02   -0.9686E-03   -0.7392E-03   -0.5214E-03   -0.3997E-03
[...]
               WELLS =   317840832.0000                 WELLS =       30000.0000
    INST. IB STORAGE =    63553128.0000      INST. IB STORAGE =        4943.6289
    DELAY IB STORAGE =   164245744.0000      DELAY IB STORAGE =       14665.0771

            TOTAL IN =   590362624.0000              TOTAL IN =       52787.4219

          OUT:                                     OUT:
          ----                                     ----
             STORAGE =           0.0000               STORAGE =           0.0000
       CONSTANT HEAD =   272552384.0000         CONSTANT HEAD =       22787.4668
               WELLS =   317810848.0000                 WELLS =       30000.0000
    INST. IB STORAGE =           0.0000      INST. IB STORAGE =           0.0000
    DELAY IB STORAGE =           0.0000      DELAY IB STORAGE =           0.0000

           TOTAL OUT =   590363264.0000             TOTAL OUT =       52787.4688

            IN - OUT =        -640.0000              IN - OUT =      -4.6875E-02

 PERCENT DISCREPANCY =           0.00     PERCENT DISCREPANCY =           0.00






          TIME SUMMARY AT END OF TIME STEP   6 IN STRESS PERIOD   30
                    SECONDS     MINUTES      HOURS       DAYS        YEARS
                    -----------------------------------------------------------
   TIME STEP LENGTH 9.18681E+06 1.53113E+05  2551.9      106.33     0.29111    
 STRESS PERIOD TIME 3.15619E+07 5.26032E+05  8767.2      365.30      1.0001    
         TOTAL TIME 9.15382E+08 1.52564E+07 2.54273E+05  10595.      29.007    
1

                               VOLUMETRIC BUDGET FOR SYSTEMS OF DELAY INTERBEDS
                                          AT END OF TIME STEP  6 IN STRESS PERIOD 30

          |   C U M U L A T I V E   V O L U M E S   L**3           | R A T E S   F O R  T H I S  T I M E  S T E P   L**3/T  |
   SYSTEM |    CHANGE IN     BOUNDARY                    PERCENT   |    CHANGE IN     BOUNDARY                    PERCENT   |
   NUMBER |     STORAGE        FLOW           SUM      DISCREPANCY |     STORAGE        FLOW           SUM      DISCREPANCY |
  --------|--------------------------------------------------------|--------------------------------------------------------|
      1    0.11244E+06   -0.11244E+06     0.0000         0.0000         7.9516        -7.9516        0.33379E-05    0.41977E-04
      2    0.16413E+09   -0.16413E+09     0.0000         0.0000         14657.        -14657.        0.39063E-02    0.26651E-04
  --------|--------------------------------------------------------|--------------------------------------------------------|
 TOTALS:    0.16425E+09   -0.16425E+09     0.0000         0.0000         14665.        -14665.        0.39063E-02    0.26636E-04
1
                            STRESS PERIOD NO.   31, LENGTH =   365.3000    
                            -----------------------------------------------

                              NUMBER OF TIME STEPS =     6

                               MULTIPLIER FOR DELT =     1.300

                            INITIAL TIME STEP SIZE =   28.63744    

 REUSING NON-PARAMETER WELLS FROM LAST STRESS PERIOD

     14 WELLS
 
 SOLVING FOR HEAD 

    42 ITERATIONS FOR TIME STEP   1 IN STRESS PERIOD   31

 MAXIMUM HEAD CHANGE FOR EACH ITERATION:

    HEAD CHANGE   HEAD CHANGE   HEAD CHANGE   HEAD CHANGE   HEAD CHANGE
  LAYER,ROW,COL LAYER,ROW,COL LAYER,ROW,COL LAYER,ROW,COL LAYER,ROW,COL
 ----------------------------------------------------------------------
      1.257         3.206         2.280        -1.252        -2.422    
  (  3, 10,  5) (  3,  1, 10) (  3, 10, 10) (  3, 10, 10) (  3,  1,  1)
    -0.2100       -0.5473        -1.238        -1.005        0.7748    
  (  3,  1, 10) (  3,  1,  1) (  3,  1, 10) (  3,  4,  1) (  3, 10,  1)
    -0.8305E-01    0.4117E-01    0.3267E-01   -0.7579E-02    0.7912E-02
  (  2,  8,  1) (  2, 10,  7) (  2, 10,  1) (  2, 10,  1) (  2, 10,  1)
     0.1244E-01    0.3956E-02   -0.7417E-03    0.1288E-02    0.4777E-03
  (  2,  6,  1) (  2, 10,  2) (  3, 10,  1) (  3,  6, 10) (  3,  2,  4)
     0.1372E-02    0.1071E-02    0.1449E-02    0.1532E-02    0.1230E-02
  (  3, 10, 10) (  3,  2,  4) (  3, 10, 10) (  3,  1,  1) (  3,  2,  4)
     0.7641E-03    0.8390E-03    0.5803E-03    0.4099E-03    0.3039E-03
  (  3,  2,  4) (  3,  2,  4) (  3,  2,  4) (  3,  2,  4) (  3,  2,  4)
     0.1889E-03    0.2052E-03    0.1421E-03    0.9974E-04    0.7433E-04
  (  3,  1,  1) (  3,  2,  4) (  3,  2,  4) (  3,  2,  4) (  3,  2,  4)
     0.4608E-04    0.5035E-04    0.3449E-04    0.2499E-04    0.1825E-04
  (  3,  2,  4) (  3,  2,  4) (  3,  2,  4) (  3,  2,  4) (  3,  2,  4)
     0.1248E-04    0.9446E-05
  (  3,  2,  4) (  3,  1,  4)


 OUTPUT CONTROL FOR STRESS PERIOD   31   TIME STEP   1
    SAVE HEAD FOR ALL LAYERS

 HEAD WILL BE SAVED ON UNIT   21 AT END OF TIME STEP   1, STRESS PERIOD   31
 
 SOLVING FOR HEAD 
    41 ITERATIONS FOR TIME STEP   2 IN STRESS PERIOD   31

 MAXIMUM HEAD CHANGE FOR EACH ITERATION:

    HEAD CHANGE   HEAD CHANGE   HEAD CHANGE   HEAD CHANGE   HEAD CHANGE
  LAYER,ROW,COL LAYER,ROW,COL LAYER,ROW,COL LAYER,ROW,COL LAYER,ROW,COL
 ----------------------------------------------------------------------
      1.012         2.553         2.296       -0.9890        -2.728    
  (  3,  2, 10) (  3,  1, 10) (  3,  1,  1) (  3, 10, 10) (  3,  1,  1)
     0.3338       -0.4234        -1.090        0.1810        0.1247    
  (  2,  3,  6) (  3,  1,  1) (  3,  1, 10) (  3, 10,  1) (  2,  4,  5)
    -0.4686E-01   -0.1114E-01   -0.2212E-02   -0.1162E-02   -0.1335E-02
  (  2,  7,  1) (  2,  1,  2) (  3,  5,  6) (  3,  3,  1) (  3,  3,  9)
     0.1083E-02    0.6057E-03    0.2049E-02    0.1470E-02    0.2323E-02
  (  3, 10,  1) (  3,  1,  1) (  3,  7,  8) (  3,  1,  1) (  3,  4,  1)
     0.1710E-02    0.2362E-02    0.2126E-02    0.1476E-02    0.1099E-02
  (  3,  1,  1) (  3,  9,  1) (  3,  1,  1) (  3,  1,  1) (  3,  1,  1)
     0.6992E-03    0.7297E-03    0.4801E-03    0.3487E-03    0.2559E-03
  (  3,  1,  1) (  3,  1,  1) (  3,  1,  1) (  3,  1,  1) (  3,  1,  1)
     0.1712E-03    0.1604E-03    0.1185E-03    0.8032E-04    0.5991E-04
  (  3,  1,  1) (  3,  1,  2) (  3,  1,  1) (  3,  1,  1) (  3,  1,  1)
     0.3937E-04    0.3968E-04    0.2614E-04    0.1908E-04    0.1384E-04
  (  3,  1,  1) (  3,  1,  1) (  3,  1,  1) (  3,  1,  1) (  3,  1,  1)
     0.9191E-05
  (  3,  1,  1)


 OUTPUT CONTROL FOR STRESS PERIOD   31   TIME STEP   2
    SAVE HEAD FOR ALL LAYERS

 HEAD WILL BE SAVED ON UNIT   21 AT END OF TIME STEP   2, STRESS PERIOD   31
 
 SOLVING FOR HEAD 
    39 ITERATIONS FOR TIME STEP   3 IN STRESS PERIOD   31

 MAXIMUM HEAD CHANGE FOR EACH ITERATION:

    HEAD CHANGE   HEAD CHANGE   HEAD CHANGE   HEAD CHANGE   HEAD CHANGE
  LAYER,ROW,COL LAYER,ROW,COL LAYER,ROW,COL LAYER,ROW,COL LAYER,ROW,COL
 ----------------------------------------------------------------------
     0.8621         1.709         1.925       -0.8313        -2.615    
  (  3,  1, 10) (  3,  2, 10) (  3,  2,  1) (  3, 10, 10) (  3,  1,  1)
     0.5342       -0.3389       -0.9000        0.4378       -0.3074E-01
  (  2,  3,  6) (  3,  1,  1) (  3,  1, 10) (  3, 10,  1) (  2,  1,  1)
    -0.4099E-01   -0.1038E-01   -0.3868E-02   -0.1629E-02   -0.1319E-02
  (  2,  6,  1) (  2,  1,  2) (  3,  3,  8) (  3,  7,  6) (  3,  1,  2)
     0.1488E-02    0.1445E-02    0.1569E-02    0.2281E-02    0.2649E-02
  (  3,  1, 10) (  3, 10,  1) (  3,  3,  1) (  3, 10,  1) (  3,  1,  1)
     0.1593E-02    0.1885E-02    0.1285E-02    0.8066E-03    0.5740E-03
  (  3,  1,  1) (  3,  2,  2) (  3,  3,  7) (  3,  3,  1) (  3,  1,  1)
     0.3486E-03    0.4031E-03    0.2783E-03    0.1755E-03    0.1249E-03
  (  2,  9,  1) (  3,  2,  2) (  3,  3,  7) (  3,  3,  7) (  3,  3,  7)
     0.9899E-04    0.8659E-04    0.6059E-04    0.3840E-04    0.2809E-04
  (  2,  9,  1) (  3,  2,  2) (  3,  3,  7) (  3,  3,  7) (  3,  3,  7)
     0.1592E-04    0.1913E-04    0.1363E-04    0.8769E-05
  (  2,  9,  1) (  3,  3,  2) (  3,  3,  7) (  3,  1,  1)


 OUTPUT CONTROL FOR STRESS PERIOD   31   TIME STEP   3
    SAVE HEAD FOR ALL LAYERS

 HEAD WILL BE SAVED ON UNIT   21 AT END OF TIME STEP   3, STRESS PERIOD   31
 
 SOLVING FOR HEAD 
    35 ITERATIONS FOR TIME STEP   4 IN STRESS PERIOD   31

 MAXIMUM HEAD CHANGE FOR EACH ITERATION:

    HEAD CHANGE   HEAD CHANGE   HEAD CHANGE   HEAD CHANGE   HEAD CHANGE
  LAYER,ROW,COL LAYER,ROW,COL LAYER,ROW,COL LAYER,ROW,COL LAYER,ROW,COL
 ----------------------------------------------------------------------
     0.7453         1.330         1.367       -0.6815        -2.534    
  (  3, 10, 10) (  3,  1,  8) (  3,  3,  2) (  3, 10, 10) (  3,  1,  1)
     0.5976        0.3741E-01   -0.1714E-01   -0.1221E-01   -0.9256E-02
  (  2,  4,  6) (  2, 10,  2) (  3,  1, 10) (  3,  1,  5) (  3,  2,  8)
     0.5382E-02   -0.5370E-02   -0.2915E-02   -0.1445E-02    0.1689E-02
  (  2,  7,  1) (  3,  2,  8) (  3,  7,  3) (  3,  1, 10) (  3,  1,  1)
     0.1305E-02    0.2880E-02    0.2312E-02    0.1558E-02    0.1055E-02
  (  3, 10,  1) (  3,  1,  1) (  3,  1,  8) (  3,  1,  1) (  3,  1,  1)
     0.6147E-03    0.7151E-03    0.5344E-03    0.3012E-03    0.2260E-03
  (  3,  1,  1) (  3,  2,  2) (  3,  1,  1) (  3,  1,  1) (  3,  1,  1)
     0.1185E-03    0.1510E-03    0.9964E-04    0.6772E-04    0.4290E-04
  (  3,  1,  1) (  3,  1,  1) (  3,  1,  7) (  3,  1,  1) (  3,  1,  1)
     0.2787E-04    0.2901E-04    0.2309E-04    0.1268E-04    0.9986E-05
  (  3,  1,  1) (  3,  1, 10) (  3,  1,  1) (  3,  1,  1) (  3,  1,  1)


 OUTPUT CONTROL FOR STRESS PERIOD   31   TIME STEP   4
    SAVE HEAD FOR ALL LAYERS

 HEAD WILL BE SAVED ON UNIT   21 AT END OF TIME STEP   4, STRESS PERIOD   31
 
 SOLVING FOR HEAD 
    31 ITERATIONS FOR TIME STEP   5 IN STRESS PERIOD   31

 MAXIMUM HEAD CHANGE FOR EACH ITERATION:

    HEAD CHANGE   HEAD CHANGE   HEAD CHANGE   HEAD CHANGE   HEAD CHANGE
  LAYER,ROW,COL LAYER,ROW,COL LAYER,ROW,COL LAYER,ROW,COL LAYER,ROW,COL
 ----------------------------------------------------------------------
     0.5302        0.8051        0.9380       -0.8265        -2.306    
  (  3,  1, 10) (  3,  1,  6) (  3,  2,  1) (  3, 10, 10) (  3,  1,  1)
     0.6517        0.3679        0.1890        0.4491E-01    0.2401E-01
  (  3,  1, 10) (  3,  9,  3) (  2,  8,  5) (  2,  8,  8) (  2,  1,  1)
     0.6626E-01    0.8290E-02   -0.5623E-02   -0.2975E-02   -0.1950E-02
  (  2,  6,  1) (  2,  1,  2) (  3,  6,  2) (  3,  5,  1) (  3,  7,  2)
    -0.7741E-03   -0.1308E-02   -0.1012E-02   -0.5601E-03   -0.3685E-03
  (  3,  5,  1) (  3,  7,  2) (  3,  5,  2) (  3,  7,  2) (  3,  5,  2)
    -0.1464E-03   -0.2450E-03   -0.1937E-03   -0.1084E-03   -0.7068E-04
  (  3,  5,  1) (  3,  7,  2) (  3,  7,  2) (  3,  5,  2) (  3,  7,  2)
    -0.2955E-04   -0.4670E-04   -0.3715E-04   -0.2083E-04   -0.1395E-04
  (  3,  5,  2) (  3,  7,  2) (  3,  5,  2) (  3,  7,  2) (  3,  5,  2)
    -0.5830E-05
  (  3,  5,  3)


 OUTPUT CONTROL FOR STRESS PERIOD   31   TIME STEP   5
    SAVE HEAD FOR ALL LAYERS

 HEAD WILL BE SAVED ON UNIT   21 AT END OF TIME STEP   5, STRESS PERIOD   31
 
 SOLVING FOR HEAD 
    31 ITERATIONS FOR TIME STEP   6 IN STRESS PERIOD   31

 MAXIMUM HEAD CHANGE FOR EACH ITERATION:

    HEAD CHANGE   HEAD CHANGE   HEAD CHANGE   HEAD CHANGE   HEAD CHANGE
  LAYER,ROW,COL LAYER,ROW,COL LAYER,ROW,COL LAYER,ROW,COL LAYER,ROW,COL
 ----------------------------------------------------------------------
    -0.6484        0.6071        0.4140       -0.9377        -1.142    
  (  2,  4,  6) (  2,  4,  6) (  3,  3,  4) (  3, 10, 10) (  3,  1,  1)
     0.5606        0.3517        0.1135        0.4202E-01   -0.1905E-01
  (  3,  1, 10) (  3,  2,  2) (  2,  3,  9) (  2,  3,  4) (  3,  2,  5)
     0.2237E-01   -0.1268E-01   -0.1059E-01   -0.5256E-02   -0.3123E-02
  (  2,  7,  1) (  3,  2,  6) (  3,  3,  4) (  3,  3,  5) (  3,  3,  5)
    -0.1280E-02   -0.2076E-02   -0.1801E-02   -0.8710E-03   -0.5440E-03
  (  3,  1, 10) (  3,  3,  5) (  3,  3,  5) (  3,  3,  5) (  3,  3,  5)
    -0.2389E-03   -0.3558E-03   -0.3013E-03   -0.1529E-03   -0.9119E-04
  (  2,  9,  1) (  3,  3,  6) (  3,  3,  5) (  3,  3,  6) (  3,  3,  6)
     0.4366E-04   -0.6002E-04   -0.5262E-04   -0.2574E-04   -0.1693E-04
  (  2,  4,  1) (  3,  3,  5) (  3,  3,  6) (  3,  3,  5) (  3,  3,  6)
    -0.6367E-05
  (  2,  9,  1)


 OUTPUT CONTROL FOR STRESS PERIOD   31   TIME STEP   6
    PRINT BUDGET
    PRINT HEAD FOR ALL LAYERS
    SAVE HEAD FOR ALL LAYERS
    SAVE DRAWDOWN FOR ALL LAYERS
1
              HEAD IN LAYER   1 AT END OF TIME STEP   6 IN STRESS PERIOD   31
  ---------------------------------------------------------------------------

           1       2       3       4       5       6       7       8       9      10
 ...................................................................................
   1    19.66   19.31   18.64   18.21   18.00   18.00   18.21   18.63   19.30   19.66
   2    18.66   18.15   17.72   17.42   17.26   17.26   17.41   17.71   18.14   18.65
   3    17.23   16.73   16.36   16.11   15.98   15.98   16.10   16.35   16.72   17.22
   4    15.30   14.86   14.56   14.37   14.27   14.27   14.36   14.55   14.85   15.29
   5    12.56   12.47   12.36   12.28   12.24   12.23   12.28   12.36   12.46   12.55
   6    10.17   10.15   10.11   10.07   10.05   10.05   10.07   10.11   10.14   10.17
   7     7.91    7.89    7.86    7.83    7.81    7.81    7.82    7.86    7.89    7.91
   8     5.74    5.69    5.62    5.54    5.49    5.49    5.53    5.61    5.69    5.74
   9     3.77    3.63    3.38    3.11    2.99    2.99    3.10    3.38    3.63    3.76
  10     2.36    2.02    1.27    0.00    0.00    0.00    0.00    1.27    2.01    2.36
1
              HEAD IN LAYER   2 AT END OF TIME STEP   6 IN STRESS PERIOD   31
  ---------------------------------------------------------------------------

           1       2       3       4       5       6       7       8       9      10
 ...................................................................................
   1    -5.77   -5.77   -5.77   -5.79   -5.80   -5.82   -5.84   -5.85   -5.87   -5.90
   2    -5.83   -5.06   -5.38   -5.87   -6.36   -6.73   -6.70   -6.37   -6.01   -6.03
   3    -5.93   -5.56   -6.07   -6.84   -7.26   -8.26   -7.96   -7.19   -6.89   -6.17
   4    -6.05   -5.80   -6.22   -6.79   -7.09   -7.46   -7.38   -7.08   -6.90   -6.29
   5    -6.18   -5.97   -6.15   -6.42   -6.70   -6.92   -6.95   -6.82   -6.65   -6.41
   6    -6.33   -6.09   -6.15   -6.27   -6.38   -6.47   -6.51   -6.50   -6.48   -6.53
   7    -6.49   -6.31   -6.34   -6.40   -6.46   -6.50   -6.52   -6.52   -6.53   -6.65
   8    -6.65   -6.69   -6.75   -6.81   -6.86   -6.88   -6.87   -6.85   -6.82   -6.77
   9    -6.81   -7.02   -7.05   -7.09   -7.11   -7.12   -7.10   -7.07   -7.03   -6.89
  10    -6.96   -6.99   -7.02   -7.04   -7.06   -7.06   -7.05   -7.04   -7.02   -7.00
1
              HEAD IN LAYER   3 AT END OF TIME STEP   6 IN STRESS PERIOD   31
  ---------------------------------------------------------------------------

           1       2       3       4       5       6       7       8       9      10
 ...................................................................................
   1   -27.68  -27.85  -28.17  -28.59  -29.03  -29.38  -29.55  -29.55  -29.47  -29.42
   2   -27.68  -27.94  -28.45  -29.19  -30.06  -30.84  -30.93  -30.53  -30.12  -29.89
   3   -27.32  -27.71  -28.54  -29.94  -32.18  -35.80  -34.95  -32.25  -30.78  -30.12
   4   -26.06  -26.38  -27.03  -28.05  -29.48  -31.36  -31.10  -29.75  -28.88  -28.45
   5   -24.18  -24.35  -24.69  -25.17  -25.70  -26.16  -26.25  -26.07  -25.85  -25.72
   6   -22.20  -22.28  -22.44  -22.65  -22.86  -23.04  -23.13  -23.14  -23.12  -23.09
   7   -20.46  -20.50  -20.57  -20.67  -20.76  -20.85  -20.91  -20.94  -20.96  -20.96
   8   -19.11  -19.13  -19.16  -19.21  -19.26  -19.30  -19.34  -19.37  -19.38  -19.39
   9   -18.20  -18.21  -18.23  -18.25  -18.28  -18.31  -18.33  -18.35  -18.36  -18.36
  10   -17.74  -17.75  -17.76  -17.78  -17.79  -17.81  -17.83  -17.84  -17.85  -17.86

 HEAD WILL BE SAVED ON UNIT   21 AT END OF TIME STEP   6, STRESS PERIOD   31

 DRAWDOWN WILL BE SAVED ON UNIT   22 AT END OF TIME STEP   6, STRESS PERIOD   31
1
  VOLUMETRIC BUDGET FOR ENTIRE MODEL AT END OF TIME STEP  6 IN STRESS PERIOD  31
  ------------------------------------------------------------------------------

     CUMULATIVE VOLUMES      L**3       RATES FOR THIS TIME STEP      L**3/T
     ------------------                 ------------------------

           IN:                                      IN:
           ---                                      ---
             STORAGE =    44996660.0000               STORAGE =        2945.8955
       CONSTANT HEAD =      873993.2500         CONSTANT HEAD =         169.2680
               WELLS =   328799808.0000                 WELLS =       30000.0000
    INST. IB STORAGE =    65361464.0000      INST. IB STORAGE =        4957.1074
    DELAY IB STORAGE =   169578304.0000      DELAY IB STORAGE =       14553.2861

            TOTAL IN =   609610240.0000              TOTAL IN =       52625.5586

          OUT:                                     OUT:
          ----                                     ----
             STORAGE =           0.0000               STORAGE =           0.0000
       CONSTANT HEAD =   280840992.0000         CONSTANT HEAD =       22625.7012
               WELLS =   328769824.0000                 WELLS =       30000.0000
    INST. IB STORAGE =           0.0000      INST. IB STORAGE =           0.0000
    DELAY IB STORAGE =           0.0000      DELAY IB STORAGE =           0.0000

           TOTAL OUT =   609610816.0000             TOTAL OUT =       52625.7031

            IN - OUT =        -576.0000              IN - OUT =          -0.1445

 PERCENT DISCREPANCY =           0.00     PERCENT DISCREPANCY =           0.00






          TIME SUMMARY AT END OF TIME STEP   6 IN STRESS PERIOD   31
                    SECONDS     MINUTES      HOURS       DAYS        YEARS
                    -----------------------------------------------------------
   TIME STEP LENGTH 9.18681E+06 1.53113E+05  2551.9      106.33     0.29111    
 STRESS PERIOD TIME 3.15619E+07 5.26032E+05  8767.2      365.30      1.0001    
         TOTAL TIME 9.46944E+08 1.57824E+07 2.63040E+05  10960.      30.007    
1

                               VOLUMETRIC BUDGET FOR SYSTEMS OF DELAY INTERBEDS
                                          AT END OF TIME STEP  6 IN STRESS PERIOD 31

          |   C U M U L A T I V E   V O L U M E S   L**3           | R A T E S   F O R  T H I S  T I M E  S T E P   L**3/T  |
   SYSTEM |    CHANGE IN     BOUNDARY                    PERCENT   |    CHANGE IN     BOUNDARY                    PERCENT   |
   NUMBER |     STORAGE        FLOW           SUM      DISCREPANCY |     STORAGE        FLOW           SUM      DISCREPANCY |
  --------|--------------------------------------------------------|--------------------------------------------------------|
      1    0.11530E+06   -0.11530E+06     0.0000         0.0000         7.8126        -7.8126       -0.23842E-05   -0.30517E-04
      2    0.16946E+09   -0.16946E+09     0.0000         0.0000         14545.        -14545.        0.39063E-02    0.26855E-04
  --------|--------------------------------------------------------|--------------------------------------------------------|
 TOTALS:    0.16958E+09   -0.16958E+09     0.0000         0.0000         14553.        -14553.        0.39063E-02    0.26841E-04

 Run end date and time (yyyy/mm/dd hh:mm:ss): 2007/08/01 15:38:01
 Elapsed run time:  2.250 Seconds

